data_Al_10x10x20
_cell_length_a	40.5
_cell_length_b	40.5
_cell_length_c	81.0
_cell_angle_alpha	90
_cell_angle_beta	90
_cell_angle_gamma	90

_symmetry_space_group_name_H-M	"P 1"
_symmetry_int_tables_number	1
loop_
_symmetry_equiv_pos_as_xyz
'x, y, z'

loop_
_atom_site_label
_atom_site_occupancy
_atom_site_fract_x
_atom_site_fract_y
_atom_site_fract_z
_atom_site_thermal_displace_type
_atom_site_B_iso_or_equiv
_atom_site_type_symbol
Al1	1.000	0.025	0.025	0.000	Biso	1.000	Al
Al1	1.000	0.025	0.075	0.025	Biso	1.000	Al
Al1	1.000	0.075	0.025	0.025	Biso	1.000	Al
Al1	1.000	0.075	0.075	0.000	Biso	1.000	Al
Al1	1.000	0.025	0.025	0.050	Biso	1.000	Al
Al1	1.000	0.025	0.075	0.075	Biso	1.000	Al
Al1	1.000	0.075	0.025	0.075	Biso	1.000	Al
Al1	1.000	0.075	0.075	0.050	Biso	1.000	Al
Al1	1.000	0.025	0.025	0.100	Biso	1.000	Al
Al1	1.000	0.025	0.075	0.125	Biso	1.000	Al
Al1	1.000	0.075	0.025	0.125	Biso	1.000	Al
Al1	1.000	0.075	0.075	0.100	Biso	1.000	Al
Al1	1.000	0.025	0.025	0.150	Biso	1.000	Al
Al1	1.000	0.025	0.075	0.175	Biso	1.000	Al
Al1	1.000	0.075	0.025	0.175	Biso	1.000	Al
Al1	1.000	0.075	0.075	0.150	Biso	1.000	Al
Al1	1.000	0.025	0.025	0.200	Biso	1.000	Al
Al1	1.000	0.025	0.075	0.225	Biso	1.000	Al
Al1	1.000	0.075	0.025	0.225	Biso	1.000	Al
Al1	1.000	0.075	0.075	0.200	Biso	1.000	Al
Al1	1.000	0.025	0.025	0.250	Biso	1.000	Al
Al1	1.000	0.025	0.075	0.275	Biso	1.000	Al
Al1	1.000	0.075	0.025	0.275	Biso	1.000	Al
Al1	1.000	0.075	0.075	0.250	Biso	1.000	Al
Al1	1.000	0.025	0.025	0.300	Biso	1.000	Al
Al1	1.000	0.025	0.075	0.325	Biso	1.000	Al
Al1	1.000	0.075	0.025	0.325	Biso	1.000	Al
Al1	1.000	0.075	0.075	0.300	Biso	1.000	Al
Al1	1.000	0.025	0.025	0.350	Biso	1.000	Al
Al1	1.000	0.025	0.075	0.375	Biso	1.000	Al
Al1	1.000	0.075	0.025	0.375	Biso	1.000	Al
Al1	1.000	0.075	0.075	0.350	Biso	1.000	Al
Al1	1.000	0.025	0.025	0.400	Biso	1.000	Al
Al1	1.000	0.025	0.075	0.425	Biso	1.000	Al
Al1	1.000	0.075	0.025	0.425	Biso	1.000	Al
Al1	1.000	0.075	0.075	0.400	Biso	1.000	Al
Al1	1.000	0.025	0.025	0.450	Biso	1.000	Al
Al1	1.000	0.025	0.075	0.475	Biso	1.000	Al
Al1	1.000	0.075	0.025	0.475	Biso	1.000	Al
Al1	1.000	0.075	0.075	0.450	Biso	1.000	Al
Al1	1.000	0.025	0.025	0.500	Biso	1.000	Al
Al1	1.000	0.025	0.075	0.525	Biso	1.000	Al
Al1	1.000	0.075	0.025	0.525	Biso	1.000	Al
Al1	1.000	0.075	0.075	0.500	Biso	1.000	Al
Al1	1.000	0.025	0.025	0.550	Biso	1.000	Al
Al1	1.000	0.025	0.075	0.575	Biso	1.000	Al
Al1	1.000	0.075	0.025	0.575	Biso	1.000	Al
Al1	1.000	0.075	0.075	0.550	Biso	1.000	Al
Al1	1.000	0.025	0.025	0.600	Biso	1.000	Al
Al1	1.000	0.025	0.075	0.625	Biso	1.000	Al
Al1	1.000	0.075	0.025	0.625	Biso	1.000	Al
Al1	1.000	0.075	0.075	0.600	Biso	1.000	Al
Al1	1.000	0.025	0.025	0.650	Biso	1.000	Al
Al1	1.000	0.025	0.075	0.675	Biso	1.000	Al
Al1	1.000	0.075	0.025	0.675	Biso	1.000	Al
Al1	1.000	0.075	0.075	0.650	Biso	1.000	Al
Al1	1.000	0.025	0.025	0.700	Biso	1.000	Al
Al1	1.000	0.025	0.075	0.725	Biso	1.000	Al
Al1	1.000	0.075	0.025	0.725	Biso	1.000	Al
Al1	1.000	0.075	0.075	0.700	Biso	1.000	Al
Al1	1.000	0.025	0.025	0.750	Biso	1.000	Al
Al1	1.000	0.025	0.075	0.775	Biso	1.000	Al
Al1	1.000	0.075	0.025	0.775	Biso	1.000	Al
Al1	1.000	0.075	0.075	0.750	Biso	1.000	Al
Al1	1.000	0.025	0.025	0.800	Biso	1.000	Al
Al1	1.000	0.025	0.075	0.825	Biso	1.000	Al
Al1	1.000	0.075	0.025	0.825	Biso	1.000	Al
Al1	1.000	0.075	0.075	0.800	Biso	1.000	Al
Al1	1.000	0.025	0.025	0.850	Biso	1.000	Al
Al1	1.000	0.025	0.075	0.875	Biso	1.000	Al
Al1	1.000	0.075	0.025	0.875	Biso	1.000	Al
Al1	1.000	0.075	0.075	0.850	Biso	1.000	Al
Al1	1.000	0.025	0.025	0.900	Biso	1.000	Al
Al1	1.000	0.025	0.075	0.925	Biso	1.000	Al
Al1	1.000	0.075	0.025	0.925	Biso	1.000	Al
Al1	1.000	0.075	0.075	0.900	Biso	1.000	Al
Al1	1.000	0.025	0.025	0.950	Biso	1.000	Al
Al1	1.000	0.025	0.075	0.975	Biso	1.000	Al
Al1	1.000	0.075	0.025	0.975	Biso	1.000	Al
Al1	1.000	0.075	0.075	0.950	Biso	1.000	Al
Al1	1.000	0.025	0.125	0.000	Biso	1.000	Al
Al1	1.000	0.025	0.175	0.025	Biso	1.000	Al
Al1	1.000	0.075	0.125	0.025	Biso	1.000	Al
Al1	1.000	0.075	0.175	0.000	Biso	1.000	Al
Al1	1.000	0.025	0.125	0.050	Biso	1.000	Al
Al1	1.000	0.025	0.175	0.075	Biso	1.000	Al
Al1	1.000	0.075	0.125	0.075	Biso	1.000	Al
Al1	1.000	0.075	0.175	0.050	Biso	1.000	Al
Al1	1.000	0.025	0.125	0.100	Biso	1.000	Al
Al1	1.000	0.025	0.175	0.125	Biso	1.000	Al
Al1	1.000	0.075	0.125	0.125	Biso	1.000	Al
Al1	1.000	0.075	0.175	0.100	Biso	1.000	Al
Al1	1.000	0.025	0.125	0.150	Biso	1.000	Al
Al1	1.000	0.025	0.175	0.175	Biso	1.000	Al
Al1	1.000	0.075	0.125	0.175	Biso	1.000	Al
Al1	1.000	0.075	0.175	0.150	Biso	1.000	Al
Al1	1.000	0.025	0.125	0.200	Biso	1.000	Al
Al1	1.000	0.025	0.175	0.225	Biso	1.000	Al
Al1	1.000	0.075	0.125	0.225	Biso	1.000	Al
Al1	1.000	0.075	0.175	0.200	Biso	1.000	Al
Al1	1.000	0.025	0.125	0.250	Biso	1.000	Al
Al1	1.000	0.025	0.175	0.275	Biso	1.000	Al
Al1	1.000	0.075	0.125	0.275	Biso	1.000	Al
Al1	1.000	0.075	0.175	0.250	Biso	1.000	Al
Al1	1.000	0.025	0.125	0.300	Biso	1.000	Al
Al1	1.000	0.025	0.175	0.325	Biso	1.000	Al
Al1	1.000	0.075	0.125	0.325	Biso	1.000	Al
Al1	1.000	0.075	0.175	0.300	Biso	1.000	Al
Al1	1.000	0.025	0.125	0.350	Biso	1.000	Al
Al1	1.000	0.025	0.175	0.375	Biso	1.000	Al
Al1	1.000	0.075	0.125	0.375	Biso	1.000	Al
Al1	1.000	0.075	0.175	0.350	Biso	1.000	Al
Al1	1.000	0.025	0.125	0.400	Biso	1.000	Al
Al1	1.000	0.025	0.175	0.425	Biso	1.000	Al
Al1	1.000	0.075	0.125	0.425	Biso	1.000	Al
Al1	1.000	0.075	0.175	0.400	Biso	1.000	Al
Al1	1.000	0.025	0.125	0.450	Biso	1.000	Al
Al1	1.000	0.025	0.175	0.475	Biso	1.000	Al
Al1	1.000	0.075	0.125	0.475	Biso	1.000	Al
Al1	1.000	0.075	0.175	0.450	Biso	1.000	Al
Al1	1.000	0.025	0.125	0.500	Biso	1.000	Al
Al1	1.000	0.025	0.175	0.525	Biso	1.000	Al
Al1	1.000	0.075	0.125	0.525	Biso	1.000	Al
Al1	1.000	0.075	0.175	0.500	Biso	1.000	Al
Al1	1.000	0.025	0.125	0.550	Biso	1.000	Al
Al1	1.000	0.025	0.175	0.575	Biso	1.000	Al
Al1	1.000	0.075	0.125	0.575	Biso	1.000	Al
Al1	1.000	0.075	0.175	0.550	Biso	1.000	Al
Al1	1.000	0.025	0.125	0.600	Biso	1.000	Al
Al1	1.000	0.025	0.175	0.625	Biso	1.000	Al
Al1	1.000	0.075	0.125	0.625	Biso	1.000	Al
Al1	1.000	0.075	0.175	0.600	Biso	1.000	Al
Al1	1.000	0.025	0.125	0.650	Biso	1.000	Al
Al1	1.000	0.025	0.175	0.675	Biso	1.000	Al
Al1	1.000	0.075	0.125	0.675	Biso	1.000	Al
Al1	1.000	0.075	0.175	0.650	Biso	1.000	Al
Al1	1.000	0.025	0.125	0.700	Biso	1.000	Al
Al1	1.000	0.025	0.175	0.725	Biso	1.000	Al
Al1	1.000	0.075	0.125	0.725	Biso	1.000	Al
Al1	1.000	0.075	0.175	0.700	Biso	1.000	Al
Al1	1.000	0.025	0.125	0.750	Biso	1.000	Al
Al1	1.000	0.025	0.175	0.775	Biso	1.000	Al
Al1	1.000	0.075	0.125	0.775	Biso	1.000	Al
Al1	1.000	0.075	0.175	0.750	Biso	1.000	Al
Al1	1.000	0.025	0.125	0.800	Biso	1.000	Al
Al1	1.000	0.025	0.175	0.825	Biso	1.000	Al
Al1	1.000	0.075	0.125	0.825	Biso	1.000	Al
Al1	1.000	0.075	0.175	0.800	Biso	1.000	Al
Al1	1.000	0.025	0.125	0.850	Biso	1.000	Al
Al1	1.000	0.025	0.175	0.875	Biso	1.000	Al
Al1	1.000	0.075	0.125	0.875	Biso	1.000	Al
Al1	1.000	0.075	0.175	0.850	Biso	1.000	Al
Al1	1.000	0.025	0.125	0.900	Biso	1.000	Al
Al1	1.000	0.025	0.175	0.925	Biso	1.000	Al
Al1	1.000	0.075	0.125	0.925	Biso	1.000	Al
Al1	1.000	0.075	0.175	0.900	Biso	1.000	Al
Al1	1.000	0.025	0.125	0.950	Biso	1.000	Al
Al1	1.000	0.025	0.175	0.975	Biso	1.000	Al
Al1	1.000	0.075	0.125	0.975	Biso	1.000	Al
Al1	1.000	0.075	0.175	0.950	Biso	1.000	Al
Al1	1.000	0.025	0.225	0.000	Biso	1.000	Al
Al1	1.000	0.025	0.275	0.025	Biso	1.000	Al
Al1	1.000	0.075	0.225	0.025	Biso	1.000	Al
Al1	1.000	0.075	0.275	0.000	Biso	1.000	Al
Al1	1.000	0.025	0.225	0.050	Biso	1.000	Al
Al1	1.000	0.025	0.275	0.075	Biso	1.000	Al
Al1	1.000	0.075	0.225	0.075	Biso	1.000	Al
Al1	1.000	0.075	0.275	0.050	Biso	1.000	Al
Al1	1.000	0.025	0.225	0.100	Biso	1.000	Al
Al1	1.000	0.025	0.275	0.125	Biso	1.000	Al
Al1	1.000	0.075	0.225	0.125	Biso	1.000	Al
Al1	1.000	0.075	0.275	0.100	Biso	1.000	Al
Al1	1.000	0.025	0.225	0.150	Biso	1.000	Al
Al1	1.000	0.025	0.275	0.175	Biso	1.000	Al
Al1	1.000	0.075	0.225	0.175	Biso	1.000	Al
Al1	1.000	0.075	0.275	0.150	Biso	1.000	Al
Al1	1.000	0.025	0.225	0.200	Biso	1.000	Al
Al1	1.000	0.025	0.275	0.225	Biso	1.000	Al
Al1	1.000	0.075	0.225	0.225	Biso	1.000	Al
Al1	1.000	0.075	0.275	0.200	Biso	1.000	Al
Al1	1.000	0.025	0.225	0.250	Biso	1.000	Al
Al1	1.000	0.025	0.275	0.275	Biso	1.000	Al
Al1	1.000	0.075	0.225	0.275	Biso	1.000	Al
Al1	1.000	0.075	0.275	0.250	Biso	1.000	Al
Al1	1.000	0.025	0.225	0.300	Biso	1.000	Al
Al1	1.000	0.025	0.275	0.325	Biso	1.000	Al
Al1	1.000	0.075	0.225	0.325	Biso	1.000	Al
Al1	1.000	0.075	0.275	0.300	Biso	1.000	Al
Al1	1.000	0.025	0.225	0.350	Biso	1.000	Al
Al1	1.000	0.025	0.275	0.375	Biso	1.000	Al
Al1	1.000	0.075	0.225	0.375	Biso	1.000	Al
Al1	1.000	0.075	0.275	0.350	Biso	1.000	Al
Al1	1.000	0.025	0.225	0.400	Biso	1.000	Al
Al1	1.000	0.025	0.275	0.425	Biso	1.000	Al
Al1	1.000	0.075	0.225	0.425	Biso	1.000	Al
Al1	1.000	0.075	0.275	0.400	Biso	1.000	Al
Al1	1.000	0.025	0.225	0.450	Biso	1.000	Al
Al1	1.000	0.025	0.275	0.475	Biso	1.000	Al
Al1	1.000	0.075	0.225	0.475	Biso	1.000	Al
Al1	1.000	0.075	0.275	0.450	Biso	1.000	Al
Al1	1.000	0.025	0.225	0.500	Biso	1.000	Al
Al1	1.000	0.025	0.275	0.525	Biso	1.000	Al
Al1	1.000	0.075	0.225	0.525	Biso	1.000	Al
Al1	1.000	0.075	0.275	0.500	Biso	1.000	Al
Al1	1.000	0.025	0.225	0.550	Biso	1.000	Al
Al1	1.000	0.025	0.275	0.575	Biso	1.000	Al
Al1	1.000	0.075	0.225	0.575	Biso	1.000	Al
Al1	1.000	0.075	0.275	0.550	Biso	1.000	Al
Al1	1.000	0.025	0.225	0.600	Biso	1.000	Al
Al1	1.000	0.025	0.275	0.625	Biso	1.000	Al
Al1	1.000	0.075	0.225	0.625	Biso	1.000	Al
Al1	1.000	0.075	0.275	0.600	Biso	1.000	Al
Al1	1.000	0.025	0.225	0.650	Biso	1.000	Al
Al1	1.000	0.025	0.275	0.675	Biso	1.000	Al
Al1	1.000	0.075	0.225	0.675	Biso	1.000	Al
Al1	1.000	0.075	0.275	0.650	Biso	1.000	Al
Al1	1.000	0.025	0.225	0.700	Biso	1.000	Al
Al1	1.000	0.025	0.275	0.725	Biso	1.000	Al
Al1	1.000	0.075	0.225	0.725	Biso	1.000	Al
Al1	1.000	0.075	0.275	0.700	Biso	1.000	Al
Al1	1.000	0.025	0.225	0.750	Biso	1.000	Al
Al1	1.000	0.025	0.275	0.775	Biso	1.000	Al
Al1	1.000	0.075	0.225	0.775	Biso	1.000	Al
Al1	1.000	0.075	0.275	0.750	Biso	1.000	Al
Al1	1.000	0.025	0.225	0.800	Biso	1.000	Al
Al1	1.000	0.025	0.275	0.825	Biso	1.000	Al
Al1	1.000	0.075	0.225	0.825	Biso	1.000	Al
Al1	1.000	0.075	0.275	0.800	Biso	1.000	Al
Al1	1.000	0.025	0.225	0.850	Biso	1.000	Al
Al1	1.000	0.025	0.275	0.875	Biso	1.000	Al
Al1	1.000	0.075	0.225	0.875	Biso	1.000	Al
Al1	1.000	0.075	0.275	0.850	Biso	1.000	Al
Al1	1.000	0.025	0.225	0.900	Biso	1.000	Al
Al1	1.000	0.025	0.275	0.925	Biso	1.000	Al
Al1	1.000	0.075	0.225	0.925	Biso	1.000	Al
Al1	1.000	0.075	0.275	0.900	Biso	1.000	Al
Al1	1.000	0.025	0.225	0.950	Biso	1.000	Al
Al1	1.000	0.025	0.275	0.975	Biso	1.000	Al
Al1	1.000	0.075	0.225	0.975	Biso	1.000	Al
Al1	1.000	0.075	0.275	0.950	Biso	1.000	Al
Al1	1.000	0.025	0.325	0.000	Biso	1.000	Al
Al1	1.000	0.025	0.375	0.025	Biso	1.000	Al
Al1	1.000	0.075	0.325	0.025	Biso	1.000	Al
Al1	1.000	0.075	0.375	0.000	Biso	1.000	Al
Al1	1.000	0.025	0.325	0.050	Biso	1.000	Al
Al1	1.000	0.025	0.375	0.075	Biso	1.000	Al
Al1	1.000	0.075	0.325	0.075	Biso	1.000	Al
Al1	1.000	0.075	0.375	0.050	Biso	1.000	Al
Al1	1.000	0.025	0.325	0.100	Biso	1.000	Al
Al1	1.000	0.025	0.375	0.125	Biso	1.000	Al
Al1	1.000	0.075	0.325	0.125	Biso	1.000	Al
Al1	1.000	0.075	0.375	0.100	Biso	1.000	Al
Al1	1.000	0.025	0.325	0.150	Biso	1.000	Al
Al1	1.000	0.025	0.375	0.175	Biso	1.000	Al
Al1	1.000	0.075	0.325	0.175	Biso	1.000	Al
Al1	1.000	0.075	0.375	0.150	Biso	1.000	Al
Al1	1.000	0.025	0.325	0.200	Biso	1.000	Al
Al1	1.000	0.025	0.375	0.225	Biso	1.000	Al
Al1	1.000	0.075	0.325	0.225	Biso	1.000	Al
Al1	1.000	0.075	0.375	0.200	Biso	1.000	Al
Al1	1.000	0.025	0.325	0.250	Biso	1.000	Al
Al1	1.000	0.025	0.375	0.275	Biso	1.000	Al
Al1	1.000	0.075	0.325	0.275	Biso	1.000	Al
Al1	1.000	0.075	0.375	0.250	Biso	1.000	Al
Al1	1.000	0.025	0.325	0.300	Biso	1.000	Al
Al1	1.000	0.025	0.375	0.325	Biso	1.000	Al
Al1	1.000	0.075	0.325	0.325	Biso	1.000	Al
Al1	1.000	0.075	0.375	0.300	Biso	1.000	Al
Al1	1.000	0.025	0.325	0.350	Biso	1.000	Al
Al1	1.000	0.025	0.375	0.375	Biso	1.000	Al
Al1	1.000	0.075	0.325	0.375	Biso	1.000	Al
Al1	1.000	0.075	0.375	0.350	Biso	1.000	Al
Al1	1.000	0.025	0.325	0.400	Biso	1.000	Al
Al1	1.000	0.025	0.375	0.425	Biso	1.000	Al
Al1	1.000	0.075	0.325	0.425	Biso	1.000	Al
Al1	1.000	0.075	0.375	0.400	Biso	1.000	Al
Al1	1.000	0.025	0.325	0.450	Biso	1.000	Al
Al1	1.000	0.025	0.375	0.475	Biso	1.000	Al
Al1	1.000	0.075	0.325	0.475	Biso	1.000	Al
Al1	1.000	0.075	0.375	0.450	Biso	1.000	Al
Al1	1.000	0.025	0.325	0.500	Biso	1.000	Al
Al1	1.000	0.025	0.375	0.525	Biso	1.000	Al
Al1	1.000	0.075	0.325	0.525	Biso	1.000	Al
Al1	1.000	0.075	0.375	0.500	Biso	1.000	Al
Al1	1.000	0.025	0.325	0.550	Biso	1.000	Al
Al1	1.000	0.025	0.375	0.575	Biso	1.000	Al
Al1	1.000	0.075	0.325	0.575	Biso	1.000	Al
Al1	1.000	0.075	0.375	0.550	Biso	1.000	Al
Al1	1.000	0.025	0.325	0.600	Biso	1.000	Al
Al1	1.000	0.025	0.375	0.625	Biso	1.000	Al
Al1	1.000	0.075	0.325	0.625	Biso	1.000	Al
Al1	1.000	0.075	0.375	0.600	Biso	1.000	Al
Al1	1.000	0.025	0.325	0.650	Biso	1.000	Al
Al1	1.000	0.025	0.375	0.675	Biso	1.000	Al
Al1	1.000	0.075	0.325	0.675	Biso	1.000	Al
Al1	1.000	0.075	0.375	0.650	Biso	1.000	Al
Al1	1.000	0.025	0.325	0.700	Biso	1.000	Al
Al1	1.000	0.025	0.375	0.725	Biso	1.000	Al
Al1	1.000	0.075	0.325	0.725	Biso	1.000	Al
Al1	1.000	0.075	0.375	0.700	Biso	1.000	Al
Al1	1.000	0.025	0.325	0.750	Biso	1.000	Al
Al1	1.000	0.025	0.375	0.775	Biso	1.000	Al
Al1	1.000	0.075	0.325	0.775	Biso	1.000	Al
Al1	1.000	0.075	0.375	0.750	Biso	1.000	Al
Al1	1.000	0.025	0.325	0.800	Biso	1.000	Al
Al1	1.000	0.025	0.375	0.825	Biso	1.000	Al
Al1	1.000	0.075	0.325	0.825	Biso	1.000	Al
Al1	1.000	0.075	0.375	0.800	Biso	1.000	Al
Al1	1.000	0.025	0.325	0.850	Biso	1.000	Al
Al1	1.000	0.025	0.375	0.875	Biso	1.000	Al
Al1	1.000	0.075	0.325	0.875	Biso	1.000	Al
Al1	1.000	0.075	0.375	0.850	Biso	1.000	Al
Al1	1.000	0.025	0.325	0.900	Biso	1.000	Al
Al1	1.000	0.025	0.375	0.925	Biso	1.000	Al
Al1	1.000	0.075	0.325	0.925	Biso	1.000	Al
Al1	1.000	0.075	0.375	0.900	Biso	1.000	Al
Al1	1.000	0.025	0.325	0.950	Biso	1.000	Al
Al1	1.000	0.025	0.375	0.975	Biso	1.000	Al
Al1	1.000	0.075	0.325	0.975	Biso	1.000	Al
Al1	1.000	0.075	0.375	0.950	Biso	1.000	Al
Al1	1.000	0.025	0.425	0.000	Biso	1.000	Al
Al1	1.000	0.025	0.475	0.025	Biso	1.000	Al
Al1	1.000	0.075	0.425	0.025	Biso	1.000	Al
Al1	1.000	0.075	0.475	0.000	Biso	1.000	Al
Al1	1.000	0.025	0.425	0.050	Biso	1.000	Al
Al1	1.000	0.025	0.475	0.075	Biso	1.000	Al
Al1	1.000	0.075	0.425	0.075	Biso	1.000	Al
Al1	1.000	0.075	0.475	0.050	Biso	1.000	Al
Al1	1.000	0.025	0.425	0.100	Biso	1.000	Al
Al1	1.000	0.025	0.475	0.125	Biso	1.000	Al
Al1	1.000	0.075	0.425	0.125	Biso	1.000	Al
Al1	1.000	0.075	0.475	0.100	Biso	1.000	Al
Al1	1.000	0.025	0.425	0.150	Biso	1.000	Al
Al1	1.000	0.025	0.475	0.175	Biso	1.000	Al
Al1	1.000	0.075	0.425	0.175	Biso	1.000	Al
Al1	1.000	0.075	0.475	0.150	Biso	1.000	Al
Al1	1.000	0.025	0.425	0.200	Biso	1.000	Al
Al1	1.000	0.025	0.475	0.225	Biso	1.000	Al
Al1	1.000	0.075	0.425	0.225	Biso	1.000	Al
Al1	1.000	0.075	0.475	0.200	Biso	1.000	Al
Al1	1.000	0.025	0.425	0.250	Biso	1.000	Al
Al1	1.000	0.025	0.475	0.275	Biso	1.000	Al
Al1	1.000	0.075	0.425	0.275	Biso	1.000	Al
Al1	1.000	0.075	0.475	0.250	Biso	1.000	Al
Al1	1.000	0.025	0.425	0.300	Biso	1.000	Al
Al1	1.000	0.025	0.475	0.325	Biso	1.000	Al
Al1	1.000	0.075	0.425	0.325	Biso	1.000	Al
Al1	1.000	0.075	0.475	0.300	Biso	1.000	Al
Al1	1.000	0.025	0.425	0.350	Biso	1.000	Al
Al1	1.000	0.025	0.475	0.375	Biso	1.000	Al
Al1	1.000	0.075	0.425	0.375	Biso	1.000	Al
Al1	1.000	0.075	0.475	0.350	Biso	1.000	Al
Al1	1.000	0.025	0.425	0.400	Biso	1.000	Al
Al1	1.000	0.025	0.475	0.425	Biso	1.000	Al
Al1	1.000	0.075	0.425	0.425	Biso	1.000	Al
Al1	1.000	0.075	0.475	0.400	Biso	1.000	Al
Al1	1.000	0.025	0.425	0.450	Biso	1.000	Al
Al1	1.000	0.025	0.475	0.475	Biso	1.000	Al
Al1	1.000	0.075	0.425	0.475	Biso	1.000	Al
Al1	1.000	0.075	0.475	0.450	Biso	1.000	Al
Al1	1.000	0.025	0.425	0.500	Biso	1.000	Al
Al1	1.000	0.025	0.475	0.525	Biso	1.000	Al
Al1	1.000	0.075	0.425	0.525	Biso	1.000	Al
Al1	1.000	0.075	0.475	0.500	Biso	1.000	Al
Al1	1.000	0.025	0.425	0.550	Biso	1.000	Al
Al1	1.000	0.025	0.475	0.575	Biso	1.000	Al
Al1	1.000	0.075	0.425	0.575	Biso	1.000	Al
Al1	1.000	0.075	0.475	0.550	Biso	1.000	Al
Al1	1.000	0.025	0.425	0.600	Biso	1.000	Al
Al1	1.000	0.025	0.475	0.625	Biso	1.000	Al
Al1	1.000	0.075	0.425	0.625	Biso	1.000	Al
Al1	1.000	0.075	0.475	0.600	Biso	1.000	Al
Al1	1.000	0.025	0.425	0.650	Biso	1.000	Al
Al1	1.000	0.025	0.475	0.675	Biso	1.000	Al
Al1	1.000	0.075	0.425	0.675	Biso	1.000	Al
Al1	1.000	0.075	0.475	0.650	Biso	1.000	Al
Al1	1.000	0.025	0.425	0.700	Biso	1.000	Al
Al1	1.000	0.025	0.475	0.725	Biso	1.000	Al
Al1	1.000	0.075	0.425	0.725	Biso	1.000	Al
Al1	1.000	0.075	0.475	0.700	Biso	1.000	Al
Al1	1.000	0.025	0.425	0.750	Biso	1.000	Al
Al1	1.000	0.025	0.475	0.775	Biso	1.000	Al
Al1	1.000	0.075	0.425	0.775	Biso	1.000	Al
Al1	1.000	0.075	0.475	0.750	Biso	1.000	Al
Al1	1.000	0.025	0.425	0.800	Biso	1.000	Al
Al1	1.000	0.025	0.475	0.825	Biso	1.000	Al
Al1	1.000	0.075	0.425	0.825	Biso	1.000	Al
Al1	1.000	0.075	0.475	0.800	Biso	1.000	Al
Al1	1.000	0.025	0.425	0.850	Biso	1.000	Al
Al1	1.000	0.025	0.475	0.875	Biso	1.000	Al
Al1	1.000	0.075	0.425	0.875	Biso	1.000	Al
Al1	1.000	0.075	0.475	0.850	Biso	1.000	Al
Al1	1.000	0.025	0.425	0.900	Biso	1.000	Al
Al1	1.000	0.025	0.475	0.925	Biso	1.000	Al
Al1	1.000	0.075	0.425	0.925	Biso	1.000	Al
Al1	1.000	0.075	0.475	0.900	Biso	1.000	Al
Al1	1.000	0.025	0.425	0.950	Biso	1.000	Al
Al1	1.000	0.025	0.475	0.975	Biso	1.000	Al
Al1	1.000	0.075	0.425	0.975	Biso	1.000	Al
Al1	1.000	0.075	0.475	0.950	Biso	1.000	Al
Al1	1.000	0.025	0.525	0.000	Biso	1.000	Al
Al1	1.000	0.025	0.575	0.025	Biso	1.000	Al
Al1	1.000	0.075	0.525	0.025	Biso	1.000	Al
Al1	1.000	0.075	0.575	0.000	Biso	1.000	Al
Al1	1.000	0.025	0.525	0.050	Biso	1.000	Al
Al1	1.000	0.025	0.575	0.075	Biso	1.000	Al
Al1	1.000	0.075	0.525	0.075	Biso	1.000	Al
Al1	1.000	0.075	0.575	0.050	Biso	1.000	Al
Al1	1.000	0.025	0.525	0.100	Biso	1.000	Al
Al1	1.000	0.025	0.575	0.125	Biso	1.000	Al
Al1	1.000	0.075	0.525	0.125	Biso	1.000	Al
Al1	1.000	0.075	0.575	0.100	Biso	1.000	Al
Al1	1.000	0.025	0.525	0.150	Biso	1.000	Al
Al1	1.000	0.025	0.575	0.175	Biso	1.000	Al
Al1	1.000	0.075	0.525	0.175	Biso	1.000	Al
Al1	1.000	0.075	0.575	0.150	Biso	1.000	Al
Al1	1.000	0.025	0.525	0.200	Biso	1.000	Al
Al1	1.000	0.025	0.575	0.225	Biso	1.000	Al
Al1	1.000	0.075	0.525	0.225	Biso	1.000	Al
Al1	1.000	0.075	0.575	0.200	Biso	1.000	Al
Al1	1.000	0.025	0.525	0.250	Biso	1.000	Al
Al1	1.000	0.025	0.575	0.275	Biso	1.000	Al
Al1	1.000	0.075	0.525	0.275	Biso	1.000	Al
Al1	1.000	0.075	0.575	0.250	Biso	1.000	Al
Al1	1.000	0.025	0.525	0.300	Biso	1.000	Al
Al1	1.000	0.025	0.575	0.325	Biso	1.000	Al
Al1	1.000	0.075	0.525	0.325	Biso	1.000	Al
Al1	1.000	0.075	0.575	0.300	Biso	1.000	Al
Al1	1.000	0.025	0.525	0.350	Biso	1.000	Al
Al1	1.000	0.025	0.575	0.375	Biso	1.000	Al
Al1	1.000	0.075	0.525	0.375	Biso	1.000	Al
Al1	1.000	0.075	0.575	0.350	Biso	1.000	Al
Al1	1.000	0.025	0.525	0.400	Biso	1.000	Al
Al1	1.000	0.025	0.575	0.425	Biso	1.000	Al
Al1	1.000	0.075	0.525	0.425	Biso	1.000	Al
Al1	1.000	0.075	0.575	0.400	Biso	1.000	Al
Al1	1.000	0.025	0.525	0.450	Biso	1.000	Al
Al1	1.000	0.025	0.575	0.475	Biso	1.000	Al
Al1	1.000	0.075	0.525	0.475	Biso	1.000	Al
Al1	1.000	0.075	0.575	0.450	Biso	1.000	Al
Al1	1.000	0.025	0.525	0.500	Biso	1.000	Al
Al1	1.000	0.025	0.575	0.525	Biso	1.000	Al
Al1	1.000	0.075	0.525	0.525	Biso	1.000	Al
Al1	1.000	0.075	0.575	0.500	Biso	1.000	Al
Al1	1.000	0.025	0.525	0.550	Biso	1.000	Al
Al1	1.000	0.025	0.575	0.575	Biso	1.000	Al
Al1	1.000	0.075	0.525	0.575	Biso	1.000	Al
Al1	1.000	0.075	0.575	0.550	Biso	1.000	Al
Al1	1.000	0.025	0.525	0.600	Biso	1.000	Al
Al1	1.000	0.025	0.575	0.625	Biso	1.000	Al
Al1	1.000	0.075	0.525	0.625	Biso	1.000	Al
Al1	1.000	0.075	0.575	0.600	Biso	1.000	Al
Al1	1.000	0.025	0.525	0.650	Biso	1.000	Al
Al1	1.000	0.025	0.575	0.675	Biso	1.000	Al
Al1	1.000	0.075	0.525	0.675	Biso	1.000	Al
Al1	1.000	0.075	0.575	0.650	Biso	1.000	Al
Al1	1.000	0.025	0.525	0.700	Biso	1.000	Al
Al1	1.000	0.025	0.575	0.725	Biso	1.000	Al
Al1	1.000	0.075	0.525	0.725	Biso	1.000	Al
Al1	1.000	0.075	0.575	0.700	Biso	1.000	Al
Al1	1.000	0.025	0.525	0.750	Biso	1.000	Al
Al1	1.000	0.025	0.575	0.775	Biso	1.000	Al
Al1	1.000	0.075	0.525	0.775	Biso	1.000	Al
Al1	1.000	0.075	0.575	0.750	Biso	1.000	Al
Al1	1.000	0.025	0.525	0.800	Biso	1.000	Al
Al1	1.000	0.025	0.575	0.825	Biso	1.000	Al
Al1	1.000	0.075	0.525	0.825	Biso	1.000	Al
Al1	1.000	0.075	0.575	0.800	Biso	1.000	Al
Al1	1.000	0.025	0.525	0.850	Biso	1.000	Al
Al1	1.000	0.025	0.575	0.875	Biso	1.000	Al
Al1	1.000	0.075	0.525	0.875	Biso	1.000	Al
Al1	1.000	0.075	0.575	0.850	Biso	1.000	Al
Al1	1.000	0.025	0.525	0.900	Biso	1.000	Al
Al1	1.000	0.025	0.575	0.925	Biso	1.000	Al
Al1	1.000	0.075	0.525	0.925	Biso	1.000	Al
Al1	1.000	0.075	0.575	0.900	Biso	1.000	Al
Al1	1.000	0.025	0.525	0.950	Biso	1.000	Al
Al1	1.000	0.025	0.575	0.975	Biso	1.000	Al
Al1	1.000	0.075	0.525	0.975	Biso	1.000	Al
Al1	1.000	0.075	0.575	0.950	Biso	1.000	Al
Al1	1.000	0.025	0.625	0.000	Biso	1.000	Al
Al1	1.000	0.025	0.675	0.025	Biso	1.000	Al
Al1	1.000	0.075	0.625	0.025	Biso	1.000	Al
Al1	1.000	0.075	0.675	0.000	Biso	1.000	Al
Al1	1.000	0.025	0.625	0.050	Biso	1.000	Al
Al1	1.000	0.025	0.675	0.075	Biso	1.000	Al
Al1	1.000	0.075	0.625	0.075	Biso	1.000	Al
Al1	1.000	0.075	0.675	0.050	Biso	1.000	Al
Al1	1.000	0.025	0.625	0.100	Biso	1.000	Al
Al1	1.000	0.025	0.675	0.125	Biso	1.000	Al
Al1	1.000	0.075	0.625	0.125	Biso	1.000	Al
Al1	1.000	0.075	0.675	0.100	Biso	1.000	Al
Al1	1.000	0.025	0.625	0.150	Biso	1.000	Al
Al1	1.000	0.025	0.675	0.175	Biso	1.000	Al
Al1	1.000	0.075	0.625	0.175	Biso	1.000	Al
Al1	1.000	0.075	0.675	0.150	Biso	1.000	Al
Al1	1.000	0.025	0.625	0.200	Biso	1.000	Al
Al1	1.000	0.025	0.675	0.225	Biso	1.000	Al
Al1	1.000	0.075	0.625	0.225	Biso	1.000	Al
Al1	1.000	0.075	0.675	0.200	Biso	1.000	Al
Al1	1.000	0.025	0.625	0.250	Biso	1.000	Al
Al1	1.000	0.025	0.675	0.275	Biso	1.000	Al
Al1	1.000	0.075	0.625	0.275	Biso	1.000	Al
Al1	1.000	0.075	0.675	0.250	Biso	1.000	Al
Al1	1.000	0.025	0.625	0.300	Biso	1.000	Al
Al1	1.000	0.025	0.675	0.325	Biso	1.000	Al
Al1	1.000	0.075	0.625	0.325	Biso	1.000	Al
Al1	1.000	0.075	0.675	0.300	Biso	1.000	Al
Al1	1.000	0.025	0.625	0.350	Biso	1.000	Al
Al1	1.000	0.025	0.675	0.375	Biso	1.000	Al
Al1	1.000	0.075	0.625	0.375	Biso	1.000	Al
Al1	1.000	0.075	0.675	0.350	Biso	1.000	Al
Al1	1.000	0.025	0.625	0.400	Biso	1.000	Al
Al1	1.000	0.025	0.675	0.425	Biso	1.000	Al
Al1	1.000	0.075	0.625	0.425	Biso	1.000	Al
Al1	1.000	0.075	0.675	0.400	Biso	1.000	Al
Al1	1.000	0.025	0.625	0.450	Biso	1.000	Al
Al1	1.000	0.025	0.675	0.475	Biso	1.000	Al
Al1	1.000	0.075	0.625	0.475	Biso	1.000	Al
Al1	1.000	0.075	0.675	0.450	Biso	1.000	Al
Al1	1.000	0.025	0.625	0.500	Biso	1.000	Al
Al1	1.000	0.025	0.675	0.525	Biso	1.000	Al
Al1	1.000	0.075	0.625	0.525	Biso	1.000	Al
Al1	1.000	0.075	0.675	0.500	Biso	1.000	Al
Al1	1.000	0.025	0.625	0.550	Biso	1.000	Al
Al1	1.000	0.025	0.675	0.575	Biso	1.000	Al
Al1	1.000	0.075	0.625	0.575	Biso	1.000	Al
Al1	1.000	0.075	0.675	0.550	Biso	1.000	Al
Al1	1.000	0.025	0.625	0.600	Biso	1.000	Al
Al1	1.000	0.025	0.675	0.625	Biso	1.000	Al
Al1	1.000	0.075	0.625	0.625	Biso	1.000	Al
Al1	1.000	0.075	0.675	0.600	Biso	1.000	Al
Al1	1.000	0.025	0.625	0.650	Biso	1.000	Al
Al1	1.000	0.025	0.675	0.675	Biso	1.000	Al
Al1	1.000	0.075	0.625	0.675	Biso	1.000	Al
Al1	1.000	0.075	0.675	0.650	Biso	1.000	Al
Al1	1.000	0.025	0.625	0.700	Biso	1.000	Al
Al1	1.000	0.025	0.675	0.725	Biso	1.000	Al
Al1	1.000	0.075	0.625	0.725	Biso	1.000	Al
Al1	1.000	0.075	0.675	0.700	Biso	1.000	Al
Al1	1.000	0.025	0.625	0.750	Biso	1.000	Al
Al1	1.000	0.025	0.675	0.775	Biso	1.000	Al
Al1	1.000	0.075	0.625	0.775	Biso	1.000	Al
Al1	1.000	0.075	0.675	0.750	Biso	1.000	Al
Al1	1.000	0.025	0.625	0.800	Biso	1.000	Al
Al1	1.000	0.025	0.675	0.825	Biso	1.000	Al
Al1	1.000	0.075	0.625	0.825	Biso	1.000	Al
Al1	1.000	0.075	0.675	0.800	Biso	1.000	Al
Al1	1.000	0.025	0.625	0.850	Biso	1.000	Al
Al1	1.000	0.025	0.675	0.875	Biso	1.000	Al
Al1	1.000	0.075	0.625	0.875	Biso	1.000	Al
Al1	1.000	0.075	0.675	0.850	Biso	1.000	Al
Al1	1.000	0.025	0.625	0.900	Biso	1.000	Al
Al1	1.000	0.025	0.675	0.925	Biso	1.000	Al
Al1	1.000	0.075	0.625	0.925	Biso	1.000	Al
Al1	1.000	0.075	0.675	0.900	Biso	1.000	Al
Al1	1.000	0.025	0.625	0.950	Biso	1.000	Al
Al1	1.000	0.025	0.675	0.975	Biso	1.000	Al
Al1	1.000	0.075	0.625	0.975	Biso	1.000	Al
Al1	1.000	0.075	0.675	0.950	Biso	1.000	Al
Al1	1.000	0.025	0.725	0.000	Biso	1.000	Al
Al1	1.000	0.025	0.775	0.025	Biso	1.000	Al
Al1	1.000	0.075	0.725	0.025	Biso	1.000	Al
Al1	1.000	0.075	0.775	0.000	Biso	1.000	Al
Al1	1.000	0.025	0.725	0.050	Biso	1.000	Al
Al1	1.000	0.025	0.775	0.075	Biso	1.000	Al
Al1	1.000	0.075	0.725	0.075	Biso	1.000	Al
Al1	1.000	0.075	0.775	0.050	Biso	1.000	Al
Al1	1.000	0.025	0.725	0.100	Biso	1.000	Al
Al1	1.000	0.025	0.775	0.125	Biso	1.000	Al
Al1	1.000	0.075	0.725	0.125	Biso	1.000	Al
Al1	1.000	0.075	0.775	0.100	Biso	1.000	Al
Al1	1.000	0.025	0.725	0.150	Biso	1.000	Al
Al1	1.000	0.025	0.775	0.175	Biso	1.000	Al
Al1	1.000	0.075	0.725	0.175	Biso	1.000	Al
Al1	1.000	0.075	0.775	0.150	Biso	1.000	Al
Al1	1.000	0.025	0.725	0.200	Biso	1.000	Al
Al1	1.000	0.025	0.775	0.225	Biso	1.000	Al
Al1	1.000	0.075	0.725	0.225	Biso	1.000	Al
Al1	1.000	0.075	0.775	0.200	Biso	1.000	Al
Al1	1.000	0.025	0.725	0.250	Biso	1.000	Al
Al1	1.000	0.025	0.775	0.275	Biso	1.000	Al
Al1	1.000	0.075	0.725	0.275	Biso	1.000	Al
Al1	1.000	0.075	0.775	0.250	Biso	1.000	Al
Al1	1.000	0.025	0.725	0.300	Biso	1.000	Al
Al1	1.000	0.025	0.775	0.325	Biso	1.000	Al
Al1	1.000	0.075	0.725	0.325	Biso	1.000	Al
Al1	1.000	0.075	0.775	0.300	Biso	1.000	Al
Al1	1.000	0.025	0.725	0.350	Biso	1.000	Al
Al1	1.000	0.025	0.775	0.375	Biso	1.000	Al
Al1	1.000	0.075	0.725	0.375	Biso	1.000	Al
Al1	1.000	0.075	0.775	0.350	Biso	1.000	Al
Al1	1.000	0.025	0.725	0.400	Biso	1.000	Al
Al1	1.000	0.025	0.775	0.425	Biso	1.000	Al
Al1	1.000	0.075	0.725	0.425	Biso	1.000	Al
Al1	1.000	0.075	0.775	0.400	Biso	1.000	Al
Al1	1.000	0.025	0.725	0.450	Biso	1.000	Al
Al1	1.000	0.025	0.775	0.475	Biso	1.000	Al
Al1	1.000	0.075	0.725	0.475	Biso	1.000	Al
Al1	1.000	0.075	0.775	0.450	Biso	1.000	Al
Al1	1.000	0.025	0.725	0.500	Biso	1.000	Al
Al1	1.000	0.025	0.775	0.525	Biso	1.000	Al
Al1	1.000	0.075	0.725	0.525	Biso	1.000	Al
Al1	1.000	0.075	0.775	0.500	Biso	1.000	Al
Al1	1.000	0.025	0.725	0.550	Biso	1.000	Al
Al1	1.000	0.025	0.775	0.575	Biso	1.000	Al
Al1	1.000	0.075	0.725	0.575	Biso	1.000	Al
Al1	1.000	0.075	0.775	0.550	Biso	1.000	Al
Al1	1.000	0.025	0.725	0.600	Biso	1.000	Al
Al1	1.000	0.025	0.775	0.625	Biso	1.000	Al
Al1	1.000	0.075	0.725	0.625	Biso	1.000	Al
Al1	1.000	0.075	0.775	0.600	Biso	1.000	Al
Al1	1.000	0.025	0.725	0.650	Biso	1.000	Al
Al1	1.000	0.025	0.775	0.675	Biso	1.000	Al
Al1	1.000	0.075	0.725	0.675	Biso	1.000	Al
Al1	1.000	0.075	0.775	0.650	Biso	1.000	Al
Al1	1.000	0.025	0.725	0.700	Biso	1.000	Al
Al1	1.000	0.025	0.775	0.725	Biso	1.000	Al
Al1	1.000	0.075	0.725	0.725	Biso	1.000	Al
Al1	1.000	0.075	0.775	0.700	Biso	1.000	Al
Al1	1.000	0.025	0.725	0.750	Biso	1.000	Al
Al1	1.000	0.025	0.775	0.775	Biso	1.000	Al
Al1	1.000	0.075	0.725	0.775	Biso	1.000	Al
Al1	1.000	0.075	0.775	0.750	Biso	1.000	Al
Al1	1.000	0.025	0.725	0.800	Biso	1.000	Al
Al1	1.000	0.025	0.775	0.825	Biso	1.000	Al
Al1	1.000	0.075	0.725	0.825	Biso	1.000	Al
Al1	1.000	0.075	0.775	0.800	Biso	1.000	Al
Al1	1.000	0.025	0.725	0.850	Biso	1.000	Al
Al1	1.000	0.025	0.775	0.875	Biso	1.000	Al
Al1	1.000	0.075	0.725	0.875	Biso	1.000	Al
Al1	1.000	0.075	0.775	0.850	Biso	1.000	Al
Al1	1.000	0.025	0.725	0.900	Biso	1.000	Al
Al1	1.000	0.025	0.775	0.925	Biso	1.000	Al
Al1	1.000	0.075	0.725	0.925	Biso	1.000	Al
Al1	1.000	0.075	0.775	0.900	Biso	1.000	Al
Al1	1.000	0.025	0.725	0.950	Biso	1.000	Al
Al1	1.000	0.025	0.775	0.975	Biso	1.000	Al
Al1	1.000	0.075	0.725	0.975	Biso	1.000	Al
Al1	1.000	0.075	0.775	0.950	Biso	1.000	Al
Al1	1.000	0.025	0.825	0.000	Biso	1.000	Al
Al1	1.000	0.025	0.875	0.025	Biso	1.000	Al
Al1	1.000	0.075	0.825	0.025	Biso	1.000	Al
Al1	1.000	0.075	0.875	0.000	Biso	1.000	Al
Al1	1.000	0.025	0.825	0.050	Biso	1.000	Al
Al1	1.000	0.025	0.875	0.075	Biso	1.000	Al
Al1	1.000	0.075	0.825	0.075	Biso	1.000	Al
Al1	1.000	0.075	0.875	0.050	Biso	1.000	Al
Al1	1.000	0.025	0.825	0.100	Biso	1.000	Al
Al1	1.000	0.025	0.875	0.125	Biso	1.000	Al
Al1	1.000	0.075	0.825	0.125	Biso	1.000	Al
Al1	1.000	0.075	0.875	0.100	Biso	1.000	Al
Al1	1.000	0.025	0.825	0.150	Biso	1.000	Al
Al1	1.000	0.025	0.875	0.175	Biso	1.000	Al
Al1	1.000	0.075	0.825	0.175	Biso	1.000	Al
Al1	1.000	0.075	0.875	0.150	Biso	1.000	Al
Al1	1.000	0.025	0.825	0.200	Biso	1.000	Al
Al1	1.000	0.025	0.875	0.225	Biso	1.000	Al
Al1	1.000	0.075	0.825	0.225	Biso	1.000	Al
Al1	1.000	0.075	0.875	0.200	Biso	1.000	Al
Al1	1.000	0.025	0.825	0.250	Biso	1.000	Al
Al1	1.000	0.025	0.875	0.275	Biso	1.000	Al
Al1	1.000	0.075	0.825	0.275	Biso	1.000	Al
Al1	1.000	0.075	0.875	0.250	Biso	1.000	Al
Al1	1.000	0.025	0.825	0.300	Biso	1.000	Al
Al1	1.000	0.025	0.875	0.325	Biso	1.000	Al
Al1	1.000	0.075	0.825	0.325	Biso	1.000	Al
Al1	1.000	0.075	0.875	0.300	Biso	1.000	Al
Al1	1.000	0.025	0.825	0.350	Biso	1.000	Al
Al1	1.000	0.025	0.875	0.375	Biso	1.000	Al
Al1	1.000	0.075	0.825	0.375	Biso	1.000	Al
Al1	1.000	0.075	0.875	0.350	Biso	1.000	Al
Al1	1.000	0.025	0.825	0.400	Biso	1.000	Al
Al1	1.000	0.025	0.875	0.425	Biso	1.000	Al
Al1	1.000	0.075	0.825	0.425	Biso	1.000	Al
Al1	1.000	0.075	0.875	0.400	Biso	1.000	Al
Al1	1.000	0.025	0.825	0.450	Biso	1.000	Al
Al1	1.000	0.025	0.875	0.475	Biso	1.000	Al
Al1	1.000	0.075	0.825	0.475	Biso	1.000	Al
Al1	1.000	0.075	0.875	0.450	Biso	1.000	Al
Al1	1.000	0.025	0.825	0.500	Biso	1.000	Al
Al1	1.000	0.025	0.875	0.525	Biso	1.000	Al
Al1	1.000	0.075	0.825	0.525	Biso	1.000	Al
Al1	1.000	0.075	0.875	0.500	Biso	1.000	Al
Al1	1.000	0.025	0.825	0.550	Biso	1.000	Al
Al1	1.000	0.025	0.875	0.575	Biso	1.000	Al
Al1	1.000	0.075	0.825	0.575	Biso	1.000	Al
Al1	1.000	0.075	0.875	0.550	Biso	1.000	Al
Al1	1.000	0.025	0.825	0.600	Biso	1.000	Al
Al1	1.000	0.025	0.875	0.625	Biso	1.000	Al
Al1	1.000	0.075	0.825	0.625	Biso	1.000	Al
Al1	1.000	0.075	0.875	0.600	Biso	1.000	Al
Al1	1.000	0.025	0.825	0.650	Biso	1.000	Al
Al1	1.000	0.025	0.875	0.675	Biso	1.000	Al
Al1	1.000	0.075	0.825	0.675	Biso	1.000	Al
Al1	1.000	0.075	0.875	0.650	Biso	1.000	Al
Al1	1.000	0.025	0.825	0.700	Biso	1.000	Al
Al1	1.000	0.025	0.875	0.725	Biso	1.000	Al
Al1	1.000	0.075	0.825	0.725	Biso	1.000	Al
Al1	1.000	0.075	0.875	0.700	Biso	1.000	Al
Al1	1.000	0.025	0.825	0.750	Biso	1.000	Al
Al1	1.000	0.025	0.875	0.775	Biso	1.000	Al
Al1	1.000	0.075	0.825	0.775	Biso	1.000	Al
Al1	1.000	0.075	0.875	0.750	Biso	1.000	Al
Al1	1.000	0.025	0.825	0.800	Biso	1.000	Al
Al1	1.000	0.025	0.875	0.825	Biso	1.000	Al
Al1	1.000	0.075	0.825	0.825	Biso	1.000	Al
Al1	1.000	0.075	0.875	0.800	Biso	1.000	Al
Al1	1.000	0.025	0.825	0.850	Biso	1.000	Al
Al1	1.000	0.025	0.875	0.875	Biso	1.000	Al
Al1	1.000	0.075	0.825	0.875	Biso	1.000	Al
Al1	1.000	0.075	0.875	0.850	Biso	1.000	Al
Al1	1.000	0.025	0.825	0.900	Biso	1.000	Al
Al1	1.000	0.025	0.875	0.925	Biso	1.000	Al
Al1	1.000	0.075	0.825	0.925	Biso	1.000	Al
Al1	1.000	0.075	0.875	0.900	Biso	1.000	Al
Al1	1.000	0.025	0.825	0.950	Biso	1.000	Al
Al1	1.000	0.025	0.875	0.975	Biso	1.000	Al
Al1	1.000	0.075	0.825	0.975	Biso	1.000	Al
Al1	1.000	0.075	0.875	0.950	Biso	1.000	Al
Al1	1.000	0.025	0.925	0.000	Biso	1.000	Al
Al1	1.000	0.025	0.975	0.025	Biso	1.000	Al
Al1	1.000	0.075	0.925	0.025	Biso	1.000	Al
Al1	1.000	0.075	0.975	0.000	Biso	1.000	Al
Al1	1.000	0.025	0.925	0.050	Biso	1.000	Al
Al1	1.000	0.025	0.975	0.075	Biso	1.000	Al
Al1	1.000	0.075	0.925	0.075	Biso	1.000	Al
Al1	1.000	0.075	0.975	0.050	Biso	1.000	Al
Al1	1.000	0.025	0.925	0.100	Biso	1.000	Al
Al1	1.000	0.025	0.975	0.125	Biso	1.000	Al
Al1	1.000	0.075	0.925	0.125	Biso	1.000	Al
Al1	1.000	0.075	0.975	0.100	Biso	1.000	Al
Al1	1.000	0.025	0.925	0.150	Biso	1.000	Al
Al1	1.000	0.025	0.975	0.175	Biso	1.000	Al
Al1	1.000	0.075	0.925	0.175	Biso	1.000	Al
Al1	1.000	0.075	0.975	0.150	Biso	1.000	Al
Al1	1.000	0.025	0.925	0.200	Biso	1.000	Al
Al1	1.000	0.025	0.975	0.225	Biso	1.000	Al
Al1	1.000	0.075	0.925	0.225	Biso	1.000	Al
Al1	1.000	0.075	0.975	0.200	Biso	1.000	Al
Al1	1.000	0.025	0.925	0.250	Biso	1.000	Al
Al1	1.000	0.025	0.975	0.275	Biso	1.000	Al
Al1	1.000	0.075	0.925	0.275	Biso	1.000	Al
Al1	1.000	0.075	0.975	0.250	Biso	1.000	Al
Al1	1.000	0.025	0.925	0.300	Biso	1.000	Al
Al1	1.000	0.025	0.975	0.325	Biso	1.000	Al
Al1	1.000	0.075	0.925	0.325	Biso	1.000	Al
Al1	1.000	0.075	0.975	0.300	Biso	1.000	Al
Al1	1.000	0.025	0.925	0.350	Biso	1.000	Al
Al1	1.000	0.025	0.975	0.375	Biso	1.000	Al
Al1	1.000	0.075	0.925	0.375	Biso	1.000	Al
Al1	1.000	0.075	0.975	0.350	Biso	1.000	Al
Al1	1.000	0.025	0.925	0.400	Biso	1.000	Al
Al1	1.000	0.025	0.975	0.425	Biso	1.000	Al
Al1	1.000	0.075	0.925	0.425	Biso	1.000	Al
Al1	1.000	0.075	0.975	0.400	Biso	1.000	Al
Al1	1.000	0.025	0.925	0.450	Biso	1.000	Al
Al1	1.000	0.025	0.975	0.475	Biso	1.000	Al
Al1	1.000	0.075	0.925	0.475	Biso	1.000	Al
Al1	1.000	0.075	0.975	0.450	Biso	1.000	Al
Al1	1.000	0.025	0.925	0.500	Biso	1.000	Al
Al1	1.000	0.025	0.975	0.525	Biso	1.000	Al
Al1	1.000	0.075	0.925	0.525	Biso	1.000	Al
Al1	1.000	0.075	0.975	0.500	Biso	1.000	Al
Al1	1.000	0.025	0.925	0.550	Biso	1.000	Al
Al1	1.000	0.025	0.975	0.575	Biso	1.000	Al
Al1	1.000	0.075	0.925	0.575	Biso	1.000	Al
Al1	1.000	0.075	0.975	0.550	Biso	1.000	Al
Al1	1.000	0.025	0.925	0.600	Biso	1.000	Al
Al1	1.000	0.025	0.975	0.625	Biso	1.000	Al
Al1	1.000	0.075	0.925	0.625	Biso	1.000	Al
Al1	1.000	0.075	0.975	0.600	Biso	1.000	Al
Al1	1.000	0.025	0.925	0.650	Biso	1.000	Al
Al1	1.000	0.025	0.975	0.675	Biso	1.000	Al
Al1	1.000	0.075	0.925	0.675	Biso	1.000	Al
Al1	1.000	0.075	0.975	0.650	Biso	1.000	Al
Al1	1.000	0.025	0.925	0.700	Biso	1.000	Al
Al1	1.000	0.025	0.975	0.725	Biso	1.000	Al
Al1	1.000	0.075	0.925	0.725	Biso	1.000	Al
Al1	1.000	0.075	0.975	0.700	Biso	1.000	Al
Al1	1.000	0.025	0.925	0.750	Biso	1.000	Al
Al1	1.000	0.025	0.975	0.775	Biso	1.000	Al
Al1	1.000	0.075	0.925	0.775	Biso	1.000	Al
Al1	1.000	0.075	0.975	0.750	Biso	1.000	Al
Al1	1.000	0.025	0.925	0.800	Biso	1.000	Al
Al1	1.000	0.025	0.975	0.825	Biso	1.000	Al
Al1	1.000	0.075	0.925	0.825	Biso	1.000	Al
Al1	1.000	0.075	0.975	0.800	Biso	1.000	Al
Al1	1.000	0.025	0.925	0.850	Biso	1.000	Al
Al1	1.000	0.025	0.975	0.875	Biso	1.000	Al
Al1	1.000	0.075	0.925	0.875	Biso	1.000	Al
Al1	1.000	0.075	0.975	0.850	Biso	1.000	Al
Al1	1.000	0.025	0.925	0.900	Biso	1.000	Al
Al1	1.000	0.025	0.975	0.925	Biso	1.000	Al
Al1	1.000	0.075	0.925	0.925	Biso	1.000	Al
Al1	1.000	0.075	0.975	0.900	Biso	1.000	Al
Al1	1.000	0.025	0.925	0.950	Biso	1.000	Al
Al1	1.000	0.025	0.975	0.975	Biso	1.000	Al
Al1	1.000	0.075	0.925	0.975	Biso	1.000	Al
Al1	1.000	0.075	0.975	0.950	Biso	1.000	Al
Al1	1.000	0.125	0.025	0.000	Biso	1.000	Al
Al1	1.000	0.125	0.075	0.025	Biso	1.000	Al
Al1	1.000	0.175	0.025	0.025	Biso	1.000	Al
Al1	1.000	0.175	0.075	0.000	Biso	1.000	Al
Al1	1.000	0.125	0.025	0.050	Biso	1.000	Al
Al1	1.000	0.125	0.075	0.075	Biso	1.000	Al
Al1	1.000	0.175	0.025	0.075	Biso	1.000	Al
Al1	1.000	0.175	0.075	0.050	Biso	1.000	Al
Al1	1.000	0.125	0.025	0.100	Biso	1.000	Al
Al1	1.000	0.125	0.075	0.125	Biso	1.000	Al
Al1	1.000	0.175	0.025	0.125	Biso	1.000	Al
Al1	1.000	0.175	0.075	0.100	Biso	1.000	Al
Al1	1.000	0.125	0.025	0.150	Biso	1.000	Al
Al1	1.000	0.125	0.075	0.175	Biso	1.000	Al
Al1	1.000	0.175	0.025	0.175	Biso	1.000	Al
Al1	1.000	0.175	0.075	0.150	Biso	1.000	Al
Al1	1.000	0.125	0.025	0.200	Biso	1.000	Al
Al1	1.000	0.125	0.075	0.225	Biso	1.000	Al
Al1	1.000	0.175	0.025	0.225	Biso	1.000	Al
Al1	1.000	0.175	0.075	0.200	Biso	1.000	Al
Al1	1.000	0.125	0.025	0.250	Biso	1.000	Al
Al1	1.000	0.125	0.075	0.275	Biso	1.000	Al
Al1	1.000	0.175	0.025	0.275	Biso	1.000	Al
Al1	1.000	0.175	0.075	0.250	Biso	1.000	Al
Al1	1.000	0.125	0.025	0.300	Biso	1.000	Al
Al1	1.000	0.125	0.075	0.325	Biso	1.000	Al
Al1	1.000	0.175	0.025	0.325	Biso	1.000	Al
Al1	1.000	0.175	0.075	0.300	Biso	1.000	Al
Al1	1.000	0.125	0.025	0.350	Biso	1.000	Al
Al1	1.000	0.125	0.075	0.375	Biso	1.000	Al
Al1	1.000	0.175	0.025	0.375	Biso	1.000	Al
Al1	1.000	0.175	0.075	0.350	Biso	1.000	Al
Al1	1.000	0.125	0.025	0.400	Biso	1.000	Al
Al1	1.000	0.125	0.075	0.425	Biso	1.000	Al
Al1	1.000	0.175	0.025	0.425	Biso	1.000	Al
Al1	1.000	0.175	0.075	0.400	Biso	1.000	Al
Al1	1.000	0.125	0.025	0.450	Biso	1.000	Al
Al1	1.000	0.125	0.075	0.475	Biso	1.000	Al
Al1	1.000	0.175	0.025	0.475	Biso	1.000	Al
Al1	1.000	0.175	0.075	0.450	Biso	1.000	Al
Al1	1.000	0.125	0.025	0.500	Biso	1.000	Al
Al1	1.000	0.125	0.075	0.525	Biso	1.000	Al
Al1	1.000	0.175	0.025	0.525	Biso	1.000	Al
Al1	1.000	0.175	0.075	0.500	Biso	1.000	Al
Al1	1.000	0.125	0.025	0.550	Biso	1.000	Al
Al1	1.000	0.125	0.075	0.575	Biso	1.000	Al
Al1	1.000	0.175	0.025	0.575	Biso	1.000	Al
Al1	1.000	0.175	0.075	0.550	Biso	1.000	Al
Al1	1.000	0.125	0.025	0.600	Biso	1.000	Al
Al1	1.000	0.125	0.075	0.625	Biso	1.000	Al
Al1	1.000	0.175	0.025	0.625	Biso	1.000	Al
Al1	1.000	0.175	0.075	0.600	Biso	1.000	Al
Al1	1.000	0.125	0.025	0.650	Biso	1.000	Al
Al1	1.000	0.125	0.075	0.675	Biso	1.000	Al
Al1	1.000	0.175	0.025	0.675	Biso	1.000	Al
Al1	1.000	0.175	0.075	0.650	Biso	1.000	Al
Al1	1.000	0.125	0.025	0.700	Biso	1.000	Al
Al1	1.000	0.125	0.075	0.725	Biso	1.000	Al
Al1	1.000	0.175	0.025	0.725	Biso	1.000	Al
Al1	1.000	0.175	0.075	0.700	Biso	1.000	Al
Al1	1.000	0.125	0.025	0.750	Biso	1.000	Al
Al1	1.000	0.125	0.075	0.775	Biso	1.000	Al
Al1	1.000	0.175	0.025	0.775	Biso	1.000	Al
Al1	1.000	0.175	0.075	0.750	Biso	1.000	Al
Al1	1.000	0.125	0.025	0.800	Biso	1.000	Al
Al1	1.000	0.125	0.075	0.825	Biso	1.000	Al
Al1	1.000	0.175	0.025	0.825	Biso	1.000	Al
Al1	1.000	0.175	0.075	0.800	Biso	1.000	Al
Al1	1.000	0.125	0.025	0.850	Biso	1.000	Al
Al1	1.000	0.125	0.075	0.875	Biso	1.000	Al
Al1	1.000	0.175	0.025	0.875	Biso	1.000	Al
Al1	1.000	0.175	0.075	0.850	Biso	1.000	Al
Al1	1.000	0.125	0.025	0.900	Biso	1.000	Al
Al1	1.000	0.125	0.075	0.925	Biso	1.000	Al
Al1	1.000	0.175	0.025	0.925	Biso	1.000	Al
Al1	1.000	0.175	0.075	0.900	Biso	1.000	Al
Al1	1.000	0.125	0.025	0.950	Biso	1.000	Al
Al1	1.000	0.125	0.075	0.975	Biso	1.000	Al
Al1	1.000	0.175	0.025	0.975	Biso	1.000	Al
Al1	1.000	0.175	0.075	0.950	Biso	1.000	Al
Al1	1.000	0.125	0.125	0.000	Biso	1.000	Al
Al1	1.000	0.125	0.175	0.025	Biso	1.000	Al
Al1	1.000	0.175	0.125	0.025	Biso	1.000	Al
Al1	1.000	0.175	0.175	0.000	Biso	1.000	Al
Al1	1.000	0.125	0.125	0.050	Biso	1.000	Al
Al1	1.000	0.125	0.175	0.075	Biso	1.000	Al
Al1	1.000	0.175	0.125	0.075	Biso	1.000	Al
Al1	1.000	0.175	0.175	0.050	Biso	1.000	Al
Al1	1.000	0.125	0.125	0.100	Biso	1.000	Al
Al1	1.000	0.125	0.175	0.125	Biso	1.000	Al
Al1	1.000	0.175	0.125	0.125	Biso	1.000	Al
Al1	1.000	0.175	0.175	0.100	Biso	1.000	Al
Al1	1.000	0.125	0.125	0.150	Biso	1.000	Al
Al1	1.000	0.125	0.175	0.175	Biso	1.000	Al
Al1	1.000	0.175	0.125	0.175	Biso	1.000	Al
Al1	1.000	0.175	0.175	0.150	Biso	1.000	Al
Al1	1.000	0.125	0.125	0.200	Biso	1.000	Al
Al1	1.000	0.125	0.175	0.225	Biso	1.000	Al
Al1	1.000	0.175	0.125	0.225	Biso	1.000	Al
Al1	1.000	0.175	0.175	0.200	Biso	1.000	Al
Al1	1.000	0.125	0.125	0.250	Biso	1.000	Al
Al1	1.000	0.125	0.175	0.275	Biso	1.000	Al
Al1	1.000	0.175	0.125	0.275	Biso	1.000	Al
Al1	1.000	0.175	0.175	0.250	Biso	1.000	Al
Al1	1.000	0.125	0.125	0.300	Biso	1.000	Al
Al1	1.000	0.125	0.175	0.325	Biso	1.000	Al
Al1	1.000	0.175	0.125	0.325	Biso	1.000	Al
Al1	1.000	0.175	0.175	0.300	Biso	1.000	Al
Al1	1.000	0.125	0.125	0.350	Biso	1.000	Al
Al1	1.000	0.125	0.175	0.375	Biso	1.000	Al
Al1	1.000	0.175	0.125	0.375	Biso	1.000	Al
Al1	1.000	0.175	0.175	0.350	Biso	1.000	Al
Al1	1.000	0.125	0.125	0.400	Biso	1.000	Al
Al1	1.000	0.125	0.175	0.425	Biso	1.000	Al
Al1	1.000	0.175	0.125	0.425	Biso	1.000	Al
Al1	1.000	0.175	0.175	0.400	Biso	1.000	Al
Al1	1.000	0.125	0.125	0.450	Biso	1.000	Al
Al1	1.000	0.125	0.175	0.475	Biso	1.000	Al
Al1	1.000	0.175	0.125	0.475	Biso	1.000	Al
Al1	1.000	0.175	0.175	0.450	Biso	1.000	Al
Al1	1.000	0.125	0.125	0.500	Biso	1.000	Al
Al1	1.000	0.125	0.175	0.525	Biso	1.000	Al
Al1	1.000	0.175	0.125	0.525	Biso	1.000	Al
Al1	1.000	0.175	0.175	0.500	Biso	1.000	Al
Al1	1.000	0.125	0.125	0.550	Biso	1.000	Al
Al1	1.000	0.125	0.175	0.575	Biso	1.000	Al
Al1	1.000	0.175	0.125	0.575	Biso	1.000	Al
Al1	1.000	0.175	0.175	0.550	Biso	1.000	Al
Al1	1.000	0.125	0.125	0.600	Biso	1.000	Al
Al1	1.000	0.125	0.175	0.625	Biso	1.000	Al
Al1	1.000	0.175	0.125	0.625	Biso	1.000	Al
Al1	1.000	0.175	0.175	0.600	Biso	1.000	Al
Al1	1.000	0.125	0.125	0.650	Biso	1.000	Al
Al1	1.000	0.125	0.175	0.675	Biso	1.000	Al
Al1	1.000	0.175	0.125	0.675	Biso	1.000	Al
Al1	1.000	0.175	0.175	0.650	Biso	1.000	Al
Al1	1.000	0.125	0.125	0.700	Biso	1.000	Al
Al1	1.000	0.125	0.175	0.725	Biso	1.000	Al
Al1	1.000	0.175	0.125	0.725	Biso	1.000	Al
Al1	1.000	0.175	0.175	0.700	Biso	1.000	Al
Al1	1.000	0.125	0.125	0.750	Biso	1.000	Al
Al1	1.000	0.125	0.175	0.775	Biso	1.000	Al
Al1	1.000	0.175	0.125	0.775	Biso	1.000	Al
Al1	1.000	0.175	0.175	0.750	Biso	1.000	Al
Al1	1.000	0.125	0.125	0.800	Biso	1.000	Al
Al1	1.000	0.125	0.175	0.825	Biso	1.000	Al
Al1	1.000	0.175	0.125	0.825	Biso	1.000	Al
Al1	1.000	0.175	0.175	0.800	Biso	1.000	Al
Al1	1.000	0.125	0.125	0.850	Biso	1.000	Al
Al1	1.000	0.125	0.175	0.875	Biso	1.000	Al
Al1	1.000	0.175	0.125	0.875	Biso	1.000	Al
Al1	1.000	0.175	0.175	0.850	Biso	1.000	Al
Al1	1.000	0.125	0.125	0.900	Biso	1.000	Al
Al1	1.000	0.125	0.175	0.925	Biso	1.000	Al
Al1	1.000	0.175	0.125	0.925	Biso	1.000	Al
Al1	1.000	0.175	0.175	0.900	Biso	1.000	Al
Al1	1.000	0.125	0.125	0.950	Biso	1.000	Al
Al1	1.000	0.125	0.175	0.975	Biso	1.000	Al
Al1	1.000	0.175	0.125	0.975	Biso	1.000	Al
Al1	1.000	0.175	0.175	0.950	Biso	1.000	Al
Al1	1.000	0.125	0.225	0.000	Biso	1.000	Al
Al1	1.000	0.125	0.275	0.025	Biso	1.000	Al
Al1	1.000	0.175	0.225	0.025	Biso	1.000	Al
Al1	1.000	0.175	0.275	0.000	Biso	1.000	Al
Al1	1.000	0.125	0.225	0.050	Biso	1.000	Al
Al1	1.000	0.125	0.275	0.075	Biso	1.000	Al
Al1	1.000	0.175	0.225	0.075	Biso	1.000	Al
Al1	1.000	0.175	0.275	0.050	Biso	1.000	Al
Al1	1.000	0.125	0.225	0.100	Biso	1.000	Al
Al1	1.000	0.125	0.275	0.125	Biso	1.000	Al
Al1	1.000	0.175	0.225	0.125	Biso	1.000	Al
Al1	1.000	0.175	0.275	0.100	Biso	1.000	Al
Al1	1.000	0.125	0.225	0.150	Biso	1.000	Al
Al1	1.000	0.125	0.275	0.175	Biso	1.000	Al
Al1	1.000	0.175	0.225	0.175	Biso	1.000	Al
Al1	1.000	0.175	0.275	0.150	Biso	1.000	Al
Al1	1.000	0.125	0.225	0.200	Biso	1.000	Al
Al1	1.000	0.125	0.275	0.225	Biso	1.000	Al
Al1	1.000	0.175	0.225	0.225	Biso	1.000	Al
Al1	1.000	0.175	0.275	0.200	Biso	1.000	Al
Al1	1.000	0.125	0.225	0.250	Biso	1.000	Al
Al1	1.000	0.125	0.275	0.275	Biso	1.000	Al
Al1	1.000	0.175	0.225	0.275	Biso	1.000	Al
Al1	1.000	0.175	0.275	0.250	Biso	1.000	Al
Al1	1.000	0.125	0.225	0.300	Biso	1.000	Al
Al1	1.000	0.125	0.275	0.325	Biso	1.000	Al
Al1	1.000	0.175	0.225	0.325	Biso	1.000	Al
Al1	1.000	0.175	0.275	0.300	Biso	1.000	Al
Al1	1.000	0.125	0.225	0.350	Biso	1.000	Al
Al1	1.000	0.125	0.275	0.375	Biso	1.000	Al
Al1	1.000	0.175	0.225	0.375	Biso	1.000	Al
Al1	1.000	0.175	0.275	0.350	Biso	1.000	Al
Al1	1.000	0.125	0.225	0.400	Biso	1.000	Al
Al1	1.000	0.125	0.275	0.425	Biso	1.000	Al
Al1	1.000	0.175	0.225	0.425	Biso	1.000	Al
Al1	1.000	0.175	0.275	0.400	Biso	1.000	Al
Al1	1.000	0.125	0.225	0.450	Biso	1.000	Al
Al1	1.000	0.125	0.275	0.475	Biso	1.000	Al
Al1	1.000	0.175	0.225	0.475	Biso	1.000	Al
Al1	1.000	0.175	0.275	0.450	Biso	1.000	Al
Al1	1.000	0.125	0.225	0.500	Biso	1.000	Al
Al1	1.000	0.125	0.275	0.525	Biso	1.000	Al
Al1	1.000	0.175	0.225	0.525	Biso	1.000	Al
Al1	1.000	0.175	0.275	0.500	Biso	1.000	Al
Al1	1.000	0.125	0.225	0.550	Biso	1.000	Al
Al1	1.000	0.125	0.275	0.575	Biso	1.000	Al
Al1	1.000	0.175	0.225	0.575	Biso	1.000	Al
Al1	1.000	0.175	0.275	0.550	Biso	1.000	Al
Al1	1.000	0.125	0.225	0.600	Biso	1.000	Al
Al1	1.000	0.125	0.275	0.625	Biso	1.000	Al
Al1	1.000	0.175	0.225	0.625	Biso	1.000	Al
Al1	1.000	0.175	0.275	0.600	Biso	1.000	Al
Al1	1.000	0.125	0.225	0.650	Biso	1.000	Al
Al1	1.000	0.125	0.275	0.675	Biso	1.000	Al
Al1	1.000	0.175	0.225	0.675	Biso	1.000	Al
Al1	1.000	0.175	0.275	0.650	Biso	1.000	Al
Al1	1.000	0.125	0.225	0.700	Biso	1.000	Al
Al1	1.000	0.125	0.275	0.725	Biso	1.000	Al
Al1	1.000	0.175	0.225	0.725	Biso	1.000	Al
Al1	1.000	0.175	0.275	0.700	Biso	1.000	Al
Al1	1.000	0.125	0.225	0.750	Biso	1.000	Al
Al1	1.000	0.125	0.275	0.775	Biso	1.000	Al
Al1	1.000	0.175	0.225	0.775	Biso	1.000	Al
Al1	1.000	0.175	0.275	0.750	Biso	1.000	Al
Al1	1.000	0.125	0.225	0.800	Biso	1.000	Al
Al1	1.000	0.125	0.275	0.825	Biso	1.000	Al
Al1	1.000	0.175	0.225	0.825	Biso	1.000	Al
Al1	1.000	0.175	0.275	0.800	Biso	1.000	Al
Al1	1.000	0.125	0.225	0.850	Biso	1.000	Al
Al1	1.000	0.125	0.275	0.875	Biso	1.000	Al
Al1	1.000	0.175	0.225	0.875	Biso	1.000	Al
Al1	1.000	0.175	0.275	0.850	Biso	1.000	Al
Al1	1.000	0.125	0.225	0.900	Biso	1.000	Al
Al1	1.000	0.125	0.275	0.925	Biso	1.000	Al
Al1	1.000	0.175	0.225	0.925	Biso	1.000	Al
Al1	1.000	0.175	0.275	0.900	Biso	1.000	Al
Al1	1.000	0.125	0.225	0.950	Biso	1.000	Al
Al1	1.000	0.125	0.275	0.975	Biso	1.000	Al
Al1	1.000	0.175	0.225	0.975	Biso	1.000	Al
Al1	1.000	0.175	0.275	0.950	Biso	1.000	Al
Al1	1.000	0.125	0.325	0.000	Biso	1.000	Al
Al1	1.000	0.125	0.375	0.025	Biso	1.000	Al
Al1	1.000	0.175	0.325	0.025	Biso	1.000	Al
Al1	1.000	0.175	0.375	0.000	Biso	1.000	Al
Al1	1.000	0.125	0.325	0.050	Biso	1.000	Al
Al1	1.000	0.125	0.375	0.075	Biso	1.000	Al
Al1	1.000	0.175	0.325	0.075	Biso	1.000	Al
Al1	1.000	0.175	0.375	0.050	Biso	1.000	Al
Al1	1.000	0.125	0.325	0.100	Biso	1.000	Al
Al1	1.000	0.125	0.375	0.125	Biso	1.000	Al
Al1	1.000	0.175	0.325	0.125	Biso	1.000	Al
Al1	1.000	0.175	0.375	0.100	Biso	1.000	Al
Al1	1.000	0.125	0.325	0.150	Biso	1.000	Al
Al1	1.000	0.125	0.375	0.175	Biso	1.000	Al
Al1	1.000	0.175	0.325	0.175	Biso	1.000	Al
Al1	1.000	0.175	0.375	0.150	Biso	1.000	Al
Al1	1.000	0.125	0.325	0.200	Biso	1.000	Al
Al1	1.000	0.125	0.375	0.225	Biso	1.000	Al
Al1	1.000	0.175	0.325	0.225	Biso	1.000	Al
Al1	1.000	0.175	0.375	0.200	Biso	1.000	Al
Al1	1.000	0.125	0.325	0.250	Biso	1.000	Al
Al1	1.000	0.125	0.375	0.275	Biso	1.000	Al
Al1	1.000	0.175	0.325	0.275	Biso	1.000	Al
Al1	1.000	0.175	0.375	0.250	Biso	1.000	Al
Al1	1.000	0.125	0.325	0.300	Biso	1.000	Al
Al1	1.000	0.125	0.375	0.325	Biso	1.000	Al
Al1	1.000	0.175	0.325	0.325	Biso	1.000	Al
Al1	1.000	0.175	0.375	0.300	Biso	1.000	Al
Al1	1.000	0.125	0.325	0.350	Biso	1.000	Al
Al1	1.000	0.125	0.375	0.375	Biso	1.000	Al
Al1	1.000	0.175	0.325	0.375	Biso	1.000	Al
Al1	1.000	0.175	0.375	0.350	Biso	1.000	Al
Al1	1.000	0.125	0.325	0.400	Biso	1.000	Al
Al1	1.000	0.125	0.375	0.425	Biso	1.000	Al
Al1	1.000	0.175	0.325	0.425	Biso	1.000	Al
Al1	1.000	0.175	0.375	0.400	Biso	1.000	Al
Al1	1.000	0.125	0.325	0.450	Biso	1.000	Al
Al1	1.000	0.125	0.375	0.475	Biso	1.000	Al
Al1	1.000	0.175	0.325	0.475	Biso	1.000	Al
Al1	1.000	0.175	0.375	0.450	Biso	1.000	Al
Al1	1.000	0.125	0.325	0.500	Biso	1.000	Al
Al1	1.000	0.125	0.375	0.525	Biso	1.000	Al
Al1	1.000	0.175	0.325	0.525	Biso	1.000	Al
Al1	1.000	0.175	0.375	0.500	Biso	1.000	Al
Al1	1.000	0.125	0.325	0.550	Biso	1.000	Al
Al1	1.000	0.125	0.375	0.575	Biso	1.000	Al
Al1	1.000	0.175	0.325	0.575	Biso	1.000	Al
Al1	1.000	0.175	0.375	0.550	Biso	1.000	Al
Al1	1.000	0.125	0.325	0.600	Biso	1.000	Al
Al1	1.000	0.125	0.375	0.625	Biso	1.000	Al
Al1	1.000	0.175	0.325	0.625	Biso	1.000	Al
Al1	1.000	0.175	0.375	0.600	Biso	1.000	Al
Al1	1.000	0.125	0.325	0.650	Biso	1.000	Al
Al1	1.000	0.125	0.375	0.675	Biso	1.000	Al
Al1	1.000	0.175	0.325	0.675	Biso	1.000	Al
Al1	1.000	0.175	0.375	0.650	Biso	1.000	Al
Al1	1.000	0.125	0.325	0.700	Biso	1.000	Al
Al1	1.000	0.125	0.375	0.725	Biso	1.000	Al
Al1	1.000	0.175	0.325	0.725	Biso	1.000	Al
Al1	1.000	0.175	0.375	0.700	Biso	1.000	Al
Al1	1.000	0.125	0.325	0.750	Biso	1.000	Al
Al1	1.000	0.125	0.375	0.775	Biso	1.000	Al
Al1	1.000	0.175	0.325	0.775	Biso	1.000	Al
Al1	1.000	0.175	0.375	0.750	Biso	1.000	Al
Al1	1.000	0.125	0.325	0.800	Biso	1.000	Al
Al1	1.000	0.125	0.375	0.825	Biso	1.000	Al
Al1	1.000	0.175	0.325	0.825	Biso	1.000	Al
Al1	1.000	0.175	0.375	0.800	Biso	1.000	Al
Al1	1.000	0.125	0.325	0.850	Biso	1.000	Al
Al1	1.000	0.125	0.375	0.875	Biso	1.000	Al
Al1	1.000	0.175	0.325	0.875	Biso	1.000	Al
Al1	1.000	0.175	0.375	0.850	Biso	1.000	Al
Al1	1.000	0.125	0.325	0.900	Biso	1.000	Al
Al1	1.000	0.125	0.375	0.925	Biso	1.000	Al
Al1	1.000	0.175	0.325	0.925	Biso	1.000	Al
Al1	1.000	0.175	0.375	0.900	Biso	1.000	Al
Al1	1.000	0.125	0.325	0.950	Biso	1.000	Al
Al1	1.000	0.125	0.375	0.975	Biso	1.000	Al
Al1	1.000	0.175	0.325	0.975	Biso	1.000	Al
Al1	1.000	0.175	0.375	0.950	Biso	1.000	Al
Al1	1.000	0.125	0.425	0.000	Biso	1.000	Al
Al1	1.000	0.125	0.475	0.025	Biso	1.000	Al
Al1	1.000	0.175	0.425	0.025	Biso	1.000	Al
Al1	1.000	0.175	0.475	0.000	Biso	1.000	Al
Al1	1.000	0.125	0.425	0.050	Biso	1.000	Al
Al1	1.000	0.125	0.475	0.075	Biso	1.000	Al
Al1	1.000	0.175	0.425	0.075	Biso	1.000	Al
Al1	1.000	0.175	0.475	0.050	Biso	1.000	Al
Al1	1.000	0.125	0.425	0.100	Biso	1.000	Al
Al1	1.000	0.125	0.475	0.125	Biso	1.000	Al
Al1	1.000	0.175	0.425	0.125	Biso	1.000	Al
Al1	1.000	0.175	0.475	0.100	Biso	1.000	Al
Al1	1.000	0.125	0.425	0.150	Biso	1.000	Al
Al1	1.000	0.125	0.475	0.175	Biso	1.000	Al
Al1	1.000	0.175	0.425	0.175	Biso	1.000	Al
Al1	1.000	0.175	0.475	0.150	Biso	1.000	Al
Al1	1.000	0.125	0.425	0.200	Biso	1.000	Al
Al1	1.000	0.125	0.475	0.225	Biso	1.000	Al
Al1	1.000	0.175	0.425	0.225	Biso	1.000	Al
Al1	1.000	0.175	0.475	0.200	Biso	1.000	Al
Al1	1.000	0.125	0.425	0.250	Biso	1.000	Al
Al1	1.000	0.125	0.475	0.275	Biso	1.000	Al
Al1	1.000	0.175	0.425	0.275	Biso	1.000	Al
Al1	1.000	0.175	0.475	0.250	Biso	1.000	Al
Al1	1.000	0.125	0.425	0.300	Biso	1.000	Al
Al1	1.000	0.125	0.475	0.325	Biso	1.000	Al
Al1	1.000	0.175	0.425	0.325	Biso	1.000	Al
Al1	1.000	0.175	0.475	0.300	Biso	1.000	Al
Al1	1.000	0.125	0.425	0.350	Biso	1.000	Al
Al1	1.000	0.125	0.475	0.375	Biso	1.000	Al
Al1	1.000	0.175	0.425	0.375	Biso	1.000	Al
Al1	1.000	0.175	0.475	0.350	Biso	1.000	Al
Al1	1.000	0.125	0.425	0.400	Biso	1.000	Al
Al1	1.000	0.125	0.475	0.425	Biso	1.000	Al
Al1	1.000	0.175	0.425	0.425	Biso	1.000	Al
Al1	1.000	0.175	0.475	0.400	Biso	1.000	Al
Al1	1.000	0.125	0.425	0.450	Biso	1.000	Al
Al1	1.000	0.125	0.475	0.475	Biso	1.000	Al
Al1	1.000	0.175	0.425	0.475	Biso	1.000	Al
Al1	1.000	0.175	0.475	0.450	Biso	1.000	Al
Al1	1.000	0.125	0.425	0.500	Biso	1.000	Al
Al1	1.000	0.125	0.475	0.525	Biso	1.000	Al
Al1	1.000	0.175	0.425	0.525	Biso	1.000	Al
Al1	1.000	0.175	0.475	0.500	Biso	1.000	Al
Al1	1.000	0.125	0.425	0.550	Biso	1.000	Al
Al1	1.000	0.125	0.475	0.575	Biso	1.000	Al
Al1	1.000	0.175	0.425	0.575	Biso	1.000	Al
Al1	1.000	0.175	0.475	0.550	Biso	1.000	Al
Al1	1.000	0.125	0.425	0.600	Biso	1.000	Al
Al1	1.000	0.125	0.475	0.625	Biso	1.000	Al
Al1	1.000	0.175	0.425	0.625	Biso	1.000	Al
Al1	1.000	0.175	0.475	0.600	Biso	1.000	Al
Al1	1.000	0.125	0.425	0.650	Biso	1.000	Al
Al1	1.000	0.125	0.475	0.675	Biso	1.000	Al
Al1	1.000	0.175	0.425	0.675	Biso	1.000	Al
Al1	1.000	0.175	0.475	0.650	Biso	1.000	Al
Al1	1.000	0.125	0.425	0.700	Biso	1.000	Al
Al1	1.000	0.125	0.475	0.725	Biso	1.000	Al
Al1	1.000	0.175	0.425	0.725	Biso	1.000	Al
Al1	1.000	0.175	0.475	0.700	Biso	1.000	Al
Al1	1.000	0.125	0.425	0.750	Biso	1.000	Al
Al1	1.000	0.125	0.475	0.775	Biso	1.000	Al
Al1	1.000	0.175	0.425	0.775	Biso	1.000	Al
Al1	1.000	0.175	0.475	0.750	Biso	1.000	Al
Al1	1.000	0.125	0.425	0.800	Biso	1.000	Al
Al1	1.000	0.125	0.475	0.825	Biso	1.000	Al
Al1	1.000	0.175	0.425	0.825	Biso	1.000	Al
Al1	1.000	0.175	0.475	0.800	Biso	1.000	Al
Al1	1.000	0.125	0.425	0.850	Biso	1.000	Al
Al1	1.000	0.125	0.475	0.875	Biso	1.000	Al
Al1	1.000	0.175	0.425	0.875	Biso	1.000	Al
Al1	1.000	0.175	0.475	0.850	Biso	1.000	Al
Al1	1.000	0.125	0.425	0.900	Biso	1.000	Al
Al1	1.000	0.125	0.475	0.925	Biso	1.000	Al
Al1	1.000	0.175	0.425	0.925	Biso	1.000	Al
Al1	1.000	0.175	0.475	0.900	Biso	1.000	Al
Al1	1.000	0.125	0.425	0.950	Biso	1.000	Al
Al1	1.000	0.125	0.475	0.975	Biso	1.000	Al
Al1	1.000	0.175	0.425	0.975	Biso	1.000	Al
Al1	1.000	0.175	0.475	0.950	Biso	1.000	Al
Al1	1.000	0.125	0.525	0.000	Biso	1.000	Al
Al1	1.000	0.125	0.575	0.025	Biso	1.000	Al
Al1	1.000	0.175	0.525	0.025	Biso	1.000	Al
Al1	1.000	0.175	0.575	0.000	Biso	1.000	Al
Al1	1.000	0.125	0.525	0.050	Biso	1.000	Al
Al1	1.000	0.125	0.575	0.075	Biso	1.000	Al
Al1	1.000	0.175	0.525	0.075	Biso	1.000	Al
Al1	1.000	0.175	0.575	0.050	Biso	1.000	Al
Al1	1.000	0.125	0.525	0.100	Biso	1.000	Al
Al1	1.000	0.125	0.575	0.125	Biso	1.000	Al
Al1	1.000	0.175	0.525	0.125	Biso	1.000	Al
Al1	1.000	0.175	0.575	0.100	Biso	1.000	Al
Al1	1.000	0.125	0.525	0.150	Biso	1.000	Al
Al1	1.000	0.125	0.575	0.175	Biso	1.000	Al
Al1	1.000	0.175	0.525	0.175	Biso	1.000	Al
Al1	1.000	0.175	0.575	0.150	Biso	1.000	Al
Al1	1.000	0.125	0.525	0.200	Biso	1.000	Al
Al1	1.000	0.125	0.575	0.225	Biso	1.000	Al
Al1	1.000	0.175	0.525	0.225	Biso	1.000	Al
Al1	1.000	0.175	0.575	0.200	Biso	1.000	Al
Al1	1.000	0.125	0.525	0.250	Biso	1.000	Al
Al1	1.000	0.125	0.575	0.275	Biso	1.000	Al
Al1	1.000	0.175	0.525	0.275	Biso	1.000	Al
Al1	1.000	0.175	0.575	0.250	Biso	1.000	Al
Al1	1.000	0.125	0.525	0.300	Biso	1.000	Al
Al1	1.000	0.125	0.575	0.325	Biso	1.000	Al
Al1	1.000	0.175	0.525	0.325	Biso	1.000	Al
Al1	1.000	0.175	0.575	0.300	Biso	1.000	Al
Al1	1.000	0.125	0.525	0.350	Biso	1.000	Al
Al1	1.000	0.125	0.575	0.375	Biso	1.000	Al
Al1	1.000	0.175	0.525	0.375	Biso	1.000	Al
Al1	1.000	0.175	0.575	0.350	Biso	1.000	Al
Al1	1.000	0.125	0.525	0.400	Biso	1.000	Al
Al1	1.000	0.125	0.575	0.425	Biso	1.000	Al
Al1	1.000	0.175	0.525	0.425	Biso	1.000	Al
Al1	1.000	0.175	0.575	0.400	Biso	1.000	Al
Al1	1.000	0.125	0.525	0.450	Biso	1.000	Al
Al1	1.000	0.125	0.575	0.475	Biso	1.000	Al
Al1	1.000	0.175	0.525	0.475	Biso	1.000	Al
Al1	1.000	0.175	0.575	0.450	Biso	1.000	Al
Al1	1.000	0.125	0.525	0.500	Biso	1.000	Al
Al1	1.000	0.125	0.575	0.525	Biso	1.000	Al
Al1	1.000	0.175	0.525	0.525	Biso	1.000	Al
Al1	1.000	0.175	0.575	0.500	Biso	1.000	Al
Al1	1.000	0.125	0.525	0.550	Biso	1.000	Al
Al1	1.000	0.125	0.575	0.575	Biso	1.000	Al
Al1	1.000	0.175	0.525	0.575	Biso	1.000	Al
Al1	1.000	0.175	0.575	0.550	Biso	1.000	Al
Al1	1.000	0.125	0.525	0.600	Biso	1.000	Al
Al1	1.000	0.125	0.575	0.625	Biso	1.000	Al
Al1	1.000	0.175	0.525	0.625	Biso	1.000	Al
Al1	1.000	0.175	0.575	0.600	Biso	1.000	Al
Al1	1.000	0.125	0.525	0.650	Biso	1.000	Al
Al1	1.000	0.125	0.575	0.675	Biso	1.000	Al
Al1	1.000	0.175	0.525	0.675	Biso	1.000	Al
Al1	1.000	0.175	0.575	0.650	Biso	1.000	Al
Al1	1.000	0.125	0.525	0.700	Biso	1.000	Al
Al1	1.000	0.125	0.575	0.725	Biso	1.000	Al
Al1	1.000	0.175	0.525	0.725	Biso	1.000	Al
Al1	1.000	0.175	0.575	0.700	Biso	1.000	Al
Al1	1.000	0.125	0.525	0.750	Biso	1.000	Al
Al1	1.000	0.125	0.575	0.775	Biso	1.000	Al
Al1	1.000	0.175	0.525	0.775	Biso	1.000	Al
Al1	1.000	0.175	0.575	0.750	Biso	1.000	Al
Al1	1.000	0.125	0.525	0.800	Biso	1.000	Al
Al1	1.000	0.125	0.575	0.825	Biso	1.000	Al
Al1	1.000	0.175	0.525	0.825	Biso	1.000	Al
Al1	1.000	0.175	0.575	0.800	Biso	1.000	Al
Al1	1.000	0.125	0.525	0.850	Biso	1.000	Al
Al1	1.000	0.125	0.575	0.875	Biso	1.000	Al
Al1	1.000	0.175	0.525	0.875	Biso	1.000	Al
Al1	1.000	0.175	0.575	0.850	Biso	1.000	Al
Al1	1.000	0.125	0.525	0.900	Biso	1.000	Al
Al1	1.000	0.125	0.575	0.925	Biso	1.000	Al
Al1	1.000	0.175	0.525	0.925	Biso	1.000	Al
Al1	1.000	0.175	0.575	0.900	Biso	1.000	Al
Al1	1.000	0.125	0.525	0.950	Biso	1.000	Al
Al1	1.000	0.125	0.575	0.975	Biso	1.000	Al
Al1	1.000	0.175	0.525	0.975	Biso	1.000	Al
Al1	1.000	0.175	0.575	0.950	Biso	1.000	Al
Al1	1.000	0.125	0.625	0.000	Biso	1.000	Al
Al1	1.000	0.125	0.675	0.025	Biso	1.000	Al
Al1	1.000	0.175	0.625	0.025	Biso	1.000	Al
Al1	1.000	0.175	0.675	0.000	Biso	1.000	Al
Al1	1.000	0.125	0.625	0.050	Biso	1.000	Al
Al1	1.000	0.125	0.675	0.075	Biso	1.000	Al
Al1	1.000	0.175	0.625	0.075	Biso	1.000	Al
Al1	1.000	0.175	0.675	0.050	Biso	1.000	Al
Al1	1.000	0.125	0.625	0.100	Biso	1.000	Al
Al1	1.000	0.125	0.675	0.125	Biso	1.000	Al
Al1	1.000	0.175	0.625	0.125	Biso	1.000	Al
Al1	1.000	0.175	0.675	0.100	Biso	1.000	Al
Al1	1.000	0.125	0.625	0.150	Biso	1.000	Al
Al1	1.000	0.125	0.675	0.175	Biso	1.000	Al
Al1	1.000	0.175	0.625	0.175	Biso	1.000	Al
Al1	1.000	0.175	0.675	0.150	Biso	1.000	Al
Al1	1.000	0.125	0.625	0.200	Biso	1.000	Al
Al1	1.000	0.125	0.675	0.225	Biso	1.000	Al
Al1	1.000	0.175	0.625	0.225	Biso	1.000	Al
Al1	1.000	0.175	0.675	0.200	Biso	1.000	Al
Al1	1.000	0.125	0.625	0.250	Biso	1.000	Al
Al1	1.000	0.125	0.675	0.275	Biso	1.000	Al
Al1	1.000	0.175	0.625	0.275	Biso	1.000	Al
Al1	1.000	0.175	0.675	0.250	Biso	1.000	Al
Al1	1.000	0.125	0.625	0.300	Biso	1.000	Al
Al1	1.000	0.125	0.675	0.325	Biso	1.000	Al
Al1	1.000	0.175	0.625	0.325	Biso	1.000	Al
Al1	1.000	0.175	0.675	0.300	Biso	1.000	Al
Al1	1.000	0.125	0.625	0.350	Biso	1.000	Al
Al1	1.000	0.125	0.675	0.375	Biso	1.000	Al
Al1	1.000	0.175	0.625	0.375	Biso	1.000	Al
Al1	1.000	0.175	0.675	0.350	Biso	1.000	Al
Al1	1.000	0.125	0.625	0.400	Biso	1.000	Al
Al1	1.000	0.125	0.675	0.425	Biso	1.000	Al
Al1	1.000	0.175	0.625	0.425	Biso	1.000	Al
Al1	1.000	0.175	0.675	0.400	Biso	1.000	Al
Al1	1.000	0.125	0.625	0.450	Biso	1.000	Al
Al1	1.000	0.125	0.675	0.475	Biso	1.000	Al
Al1	1.000	0.175	0.625	0.475	Biso	1.000	Al
Al1	1.000	0.175	0.675	0.450	Biso	1.000	Al
Al1	1.000	0.125	0.625	0.500	Biso	1.000	Al
Al1	1.000	0.125	0.675	0.525	Biso	1.000	Al
Al1	1.000	0.175	0.625	0.525	Biso	1.000	Al
Al1	1.000	0.175	0.675	0.500	Biso	1.000	Al
Al1	1.000	0.125	0.625	0.550	Biso	1.000	Al
Al1	1.000	0.125	0.675	0.575	Biso	1.000	Al
Al1	1.000	0.175	0.625	0.575	Biso	1.000	Al
Al1	1.000	0.175	0.675	0.550	Biso	1.000	Al
Al1	1.000	0.125	0.625	0.600	Biso	1.000	Al
Al1	1.000	0.125	0.675	0.625	Biso	1.000	Al
Al1	1.000	0.175	0.625	0.625	Biso	1.000	Al
Al1	1.000	0.175	0.675	0.600	Biso	1.000	Al
Al1	1.000	0.125	0.625	0.650	Biso	1.000	Al
Al1	1.000	0.125	0.675	0.675	Biso	1.000	Al
Al1	1.000	0.175	0.625	0.675	Biso	1.000	Al
Al1	1.000	0.175	0.675	0.650	Biso	1.000	Al
Al1	1.000	0.125	0.625	0.700	Biso	1.000	Al
Al1	1.000	0.125	0.675	0.725	Biso	1.000	Al
Al1	1.000	0.175	0.625	0.725	Biso	1.000	Al
Al1	1.000	0.175	0.675	0.700	Biso	1.000	Al
Al1	1.000	0.125	0.625	0.750	Biso	1.000	Al
Al1	1.000	0.125	0.675	0.775	Biso	1.000	Al
Al1	1.000	0.175	0.625	0.775	Biso	1.000	Al
Al1	1.000	0.175	0.675	0.750	Biso	1.000	Al
Al1	1.000	0.125	0.625	0.800	Biso	1.000	Al
Al1	1.000	0.125	0.675	0.825	Biso	1.000	Al
Al1	1.000	0.175	0.625	0.825	Biso	1.000	Al
Al1	1.000	0.175	0.675	0.800	Biso	1.000	Al
Al1	1.000	0.125	0.625	0.850	Biso	1.000	Al
Al1	1.000	0.125	0.675	0.875	Biso	1.000	Al
Al1	1.000	0.175	0.625	0.875	Biso	1.000	Al
Al1	1.000	0.175	0.675	0.850	Biso	1.000	Al
Al1	1.000	0.125	0.625	0.900	Biso	1.000	Al
Al1	1.000	0.125	0.675	0.925	Biso	1.000	Al
Al1	1.000	0.175	0.625	0.925	Biso	1.000	Al
Al1	1.000	0.175	0.675	0.900	Biso	1.000	Al
Al1	1.000	0.125	0.625	0.950	Biso	1.000	Al
Al1	1.000	0.125	0.675	0.975	Biso	1.000	Al
Al1	1.000	0.175	0.625	0.975	Biso	1.000	Al
Al1	1.000	0.175	0.675	0.950	Biso	1.000	Al
Al1	1.000	0.125	0.725	0.000	Biso	1.000	Al
Al1	1.000	0.125	0.775	0.025	Biso	1.000	Al
Al1	1.000	0.175	0.725	0.025	Biso	1.000	Al
Al1	1.000	0.175	0.775	0.000	Biso	1.000	Al
Al1	1.000	0.125	0.725	0.050	Biso	1.000	Al
Al1	1.000	0.125	0.775	0.075	Biso	1.000	Al
Al1	1.000	0.175	0.725	0.075	Biso	1.000	Al
Al1	1.000	0.175	0.775	0.050	Biso	1.000	Al
Al1	1.000	0.125	0.725	0.100	Biso	1.000	Al
Al1	1.000	0.125	0.775	0.125	Biso	1.000	Al
Al1	1.000	0.175	0.725	0.125	Biso	1.000	Al
Al1	1.000	0.175	0.775	0.100	Biso	1.000	Al
Al1	1.000	0.125	0.725	0.150	Biso	1.000	Al
Al1	1.000	0.125	0.775	0.175	Biso	1.000	Al
Al1	1.000	0.175	0.725	0.175	Biso	1.000	Al
Al1	1.000	0.175	0.775	0.150	Biso	1.000	Al
Al1	1.000	0.125	0.725	0.200	Biso	1.000	Al
Al1	1.000	0.125	0.775	0.225	Biso	1.000	Al
Al1	1.000	0.175	0.725	0.225	Biso	1.000	Al
Al1	1.000	0.175	0.775	0.200	Biso	1.000	Al
Al1	1.000	0.125	0.725	0.250	Biso	1.000	Al
Al1	1.000	0.125	0.775	0.275	Biso	1.000	Al
Al1	1.000	0.175	0.725	0.275	Biso	1.000	Al
Al1	1.000	0.175	0.775	0.250	Biso	1.000	Al
Al1	1.000	0.125	0.725	0.300	Biso	1.000	Al
Al1	1.000	0.125	0.775	0.325	Biso	1.000	Al
Al1	1.000	0.175	0.725	0.325	Biso	1.000	Al
Al1	1.000	0.175	0.775	0.300	Biso	1.000	Al
Al1	1.000	0.125	0.725	0.350	Biso	1.000	Al
Al1	1.000	0.125	0.775	0.375	Biso	1.000	Al
Al1	1.000	0.175	0.725	0.375	Biso	1.000	Al
Al1	1.000	0.175	0.775	0.350	Biso	1.000	Al
Al1	1.000	0.125	0.725	0.400	Biso	1.000	Al
Al1	1.000	0.125	0.775	0.425	Biso	1.000	Al
Al1	1.000	0.175	0.725	0.425	Biso	1.000	Al
Al1	1.000	0.175	0.775	0.400	Biso	1.000	Al
Al1	1.000	0.125	0.725	0.450	Biso	1.000	Al
Al1	1.000	0.125	0.775	0.475	Biso	1.000	Al
Al1	1.000	0.175	0.725	0.475	Biso	1.000	Al
Al1	1.000	0.175	0.775	0.450	Biso	1.000	Al
Al1	1.000	0.125	0.725	0.500	Biso	1.000	Al
Al1	1.000	0.125	0.775	0.525	Biso	1.000	Al
Al1	1.000	0.175	0.725	0.525	Biso	1.000	Al
Al1	1.000	0.175	0.775	0.500	Biso	1.000	Al
Al1	1.000	0.125	0.725	0.550	Biso	1.000	Al
Al1	1.000	0.125	0.775	0.575	Biso	1.000	Al
Al1	1.000	0.175	0.725	0.575	Biso	1.000	Al
Al1	1.000	0.175	0.775	0.550	Biso	1.000	Al
Al1	1.000	0.125	0.725	0.600	Biso	1.000	Al
Al1	1.000	0.125	0.775	0.625	Biso	1.000	Al
Al1	1.000	0.175	0.725	0.625	Biso	1.000	Al
Al1	1.000	0.175	0.775	0.600	Biso	1.000	Al
Al1	1.000	0.125	0.725	0.650	Biso	1.000	Al
Al1	1.000	0.125	0.775	0.675	Biso	1.000	Al
Al1	1.000	0.175	0.725	0.675	Biso	1.000	Al
Al1	1.000	0.175	0.775	0.650	Biso	1.000	Al
Al1	1.000	0.125	0.725	0.700	Biso	1.000	Al
Al1	1.000	0.125	0.775	0.725	Biso	1.000	Al
Al1	1.000	0.175	0.725	0.725	Biso	1.000	Al
Al1	1.000	0.175	0.775	0.700	Biso	1.000	Al
Al1	1.000	0.125	0.725	0.750	Biso	1.000	Al
Al1	1.000	0.125	0.775	0.775	Biso	1.000	Al
Al1	1.000	0.175	0.725	0.775	Biso	1.000	Al
Al1	1.000	0.175	0.775	0.750	Biso	1.000	Al
Al1	1.000	0.125	0.725	0.800	Biso	1.000	Al
Al1	1.000	0.125	0.775	0.825	Biso	1.000	Al
Al1	1.000	0.175	0.725	0.825	Biso	1.000	Al
Al1	1.000	0.175	0.775	0.800	Biso	1.000	Al
Al1	1.000	0.125	0.725	0.850	Biso	1.000	Al
Al1	1.000	0.125	0.775	0.875	Biso	1.000	Al
Al1	1.000	0.175	0.725	0.875	Biso	1.000	Al
Al1	1.000	0.175	0.775	0.850	Biso	1.000	Al
Al1	1.000	0.125	0.725	0.900	Biso	1.000	Al
Al1	1.000	0.125	0.775	0.925	Biso	1.000	Al
Al1	1.000	0.175	0.725	0.925	Biso	1.000	Al
Al1	1.000	0.175	0.775	0.900	Biso	1.000	Al
Al1	1.000	0.125	0.725	0.950	Biso	1.000	Al
Al1	1.000	0.125	0.775	0.975	Biso	1.000	Al
Al1	1.000	0.175	0.725	0.975	Biso	1.000	Al
Al1	1.000	0.175	0.775	0.950	Biso	1.000	Al
Al1	1.000	0.125	0.825	0.000	Biso	1.000	Al
Al1	1.000	0.125	0.875	0.025	Biso	1.000	Al
Al1	1.000	0.175	0.825	0.025	Biso	1.000	Al
Al1	1.000	0.175	0.875	0.000	Biso	1.000	Al
Al1	1.000	0.125	0.825	0.050	Biso	1.000	Al
Al1	1.000	0.125	0.875	0.075	Biso	1.000	Al
Al1	1.000	0.175	0.825	0.075	Biso	1.000	Al
Al1	1.000	0.175	0.875	0.050	Biso	1.000	Al
Al1	1.000	0.125	0.825	0.100	Biso	1.000	Al
Al1	1.000	0.125	0.875	0.125	Biso	1.000	Al
Al1	1.000	0.175	0.825	0.125	Biso	1.000	Al
Al1	1.000	0.175	0.875	0.100	Biso	1.000	Al
Al1	1.000	0.125	0.825	0.150	Biso	1.000	Al
Al1	1.000	0.125	0.875	0.175	Biso	1.000	Al
Al1	1.000	0.175	0.825	0.175	Biso	1.000	Al
Al1	1.000	0.175	0.875	0.150	Biso	1.000	Al
Al1	1.000	0.125	0.825	0.200	Biso	1.000	Al
Al1	1.000	0.125	0.875	0.225	Biso	1.000	Al
Al1	1.000	0.175	0.825	0.225	Biso	1.000	Al
Al1	1.000	0.175	0.875	0.200	Biso	1.000	Al
Al1	1.000	0.125	0.825	0.250	Biso	1.000	Al
Al1	1.000	0.125	0.875	0.275	Biso	1.000	Al
Al1	1.000	0.175	0.825	0.275	Biso	1.000	Al
Al1	1.000	0.175	0.875	0.250	Biso	1.000	Al
Al1	1.000	0.125	0.825	0.300	Biso	1.000	Al
Al1	1.000	0.125	0.875	0.325	Biso	1.000	Al
Al1	1.000	0.175	0.825	0.325	Biso	1.000	Al
Al1	1.000	0.175	0.875	0.300	Biso	1.000	Al
Al1	1.000	0.125	0.825	0.350	Biso	1.000	Al
Al1	1.000	0.125	0.875	0.375	Biso	1.000	Al
Al1	1.000	0.175	0.825	0.375	Biso	1.000	Al
Al1	1.000	0.175	0.875	0.350	Biso	1.000	Al
Al1	1.000	0.125	0.825	0.400	Biso	1.000	Al
Al1	1.000	0.125	0.875	0.425	Biso	1.000	Al
Al1	1.000	0.175	0.825	0.425	Biso	1.000	Al
Al1	1.000	0.175	0.875	0.400	Biso	1.000	Al
Al1	1.000	0.125	0.825	0.450	Biso	1.000	Al
Al1	1.000	0.125	0.875	0.475	Biso	1.000	Al
Al1	1.000	0.175	0.825	0.475	Biso	1.000	Al
Al1	1.000	0.175	0.875	0.450	Biso	1.000	Al
Al1	1.000	0.125	0.825	0.500	Biso	1.000	Al
Al1	1.000	0.125	0.875	0.525	Biso	1.000	Al
Al1	1.000	0.175	0.825	0.525	Biso	1.000	Al
Al1	1.000	0.175	0.875	0.500	Biso	1.000	Al
Al1	1.000	0.125	0.825	0.550	Biso	1.000	Al
Al1	1.000	0.125	0.875	0.575	Biso	1.000	Al
Al1	1.000	0.175	0.825	0.575	Biso	1.000	Al
Al1	1.000	0.175	0.875	0.550	Biso	1.000	Al
Al1	1.000	0.125	0.825	0.600	Biso	1.000	Al
Al1	1.000	0.125	0.875	0.625	Biso	1.000	Al
Al1	1.000	0.175	0.825	0.625	Biso	1.000	Al
Al1	1.000	0.175	0.875	0.600	Biso	1.000	Al
Al1	1.000	0.125	0.825	0.650	Biso	1.000	Al
Al1	1.000	0.125	0.875	0.675	Biso	1.000	Al
Al1	1.000	0.175	0.825	0.675	Biso	1.000	Al
Al1	1.000	0.175	0.875	0.650	Biso	1.000	Al
Al1	1.000	0.125	0.825	0.700	Biso	1.000	Al
Al1	1.000	0.125	0.875	0.725	Biso	1.000	Al
Al1	1.000	0.175	0.825	0.725	Biso	1.000	Al
Al1	1.000	0.175	0.875	0.700	Biso	1.000	Al
Al1	1.000	0.125	0.825	0.750	Biso	1.000	Al
Al1	1.000	0.125	0.875	0.775	Biso	1.000	Al
Al1	1.000	0.175	0.825	0.775	Biso	1.000	Al
Al1	1.000	0.175	0.875	0.750	Biso	1.000	Al
Al1	1.000	0.125	0.825	0.800	Biso	1.000	Al
Al1	1.000	0.125	0.875	0.825	Biso	1.000	Al
Al1	1.000	0.175	0.825	0.825	Biso	1.000	Al
Al1	1.000	0.175	0.875	0.800	Biso	1.000	Al
Al1	1.000	0.125	0.825	0.850	Biso	1.000	Al
Al1	1.000	0.125	0.875	0.875	Biso	1.000	Al
Al1	1.000	0.175	0.825	0.875	Biso	1.000	Al
Al1	1.000	0.175	0.875	0.850	Biso	1.000	Al
Al1	1.000	0.125	0.825	0.900	Biso	1.000	Al
Al1	1.000	0.125	0.875	0.925	Biso	1.000	Al
Al1	1.000	0.175	0.825	0.925	Biso	1.000	Al
Al1	1.000	0.175	0.875	0.900	Biso	1.000	Al
Al1	1.000	0.125	0.825	0.950	Biso	1.000	Al
Al1	1.000	0.125	0.875	0.975	Biso	1.000	Al
Al1	1.000	0.175	0.825	0.975	Biso	1.000	Al
Al1	1.000	0.175	0.875	0.950	Biso	1.000	Al
Al1	1.000	0.125	0.925	0.000	Biso	1.000	Al
Al1	1.000	0.125	0.975	0.025	Biso	1.000	Al
Al1	1.000	0.175	0.925	0.025	Biso	1.000	Al
Al1	1.000	0.175	0.975	0.000	Biso	1.000	Al
Al1	1.000	0.125	0.925	0.050	Biso	1.000	Al
Al1	1.000	0.125	0.975	0.075	Biso	1.000	Al
Al1	1.000	0.175	0.925	0.075	Biso	1.000	Al
Al1	1.000	0.175	0.975	0.050	Biso	1.000	Al
Al1	1.000	0.125	0.925	0.100	Biso	1.000	Al
Al1	1.000	0.125	0.975	0.125	Biso	1.000	Al
Al1	1.000	0.175	0.925	0.125	Biso	1.000	Al
Al1	1.000	0.175	0.975	0.100	Biso	1.000	Al
Al1	1.000	0.125	0.925	0.150	Biso	1.000	Al
Al1	1.000	0.125	0.975	0.175	Biso	1.000	Al
Al1	1.000	0.175	0.925	0.175	Biso	1.000	Al
Al1	1.000	0.175	0.975	0.150	Biso	1.000	Al
Al1	1.000	0.125	0.925	0.200	Biso	1.000	Al
Al1	1.000	0.125	0.975	0.225	Biso	1.000	Al
Al1	1.000	0.175	0.925	0.225	Biso	1.000	Al
Al1	1.000	0.175	0.975	0.200	Biso	1.000	Al
Al1	1.000	0.125	0.925	0.250	Biso	1.000	Al
Al1	1.000	0.125	0.975	0.275	Biso	1.000	Al
Al1	1.000	0.175	0.925	0.275	Biso	1.000	Al
Al1	1.000	0.175	0.975	0.250	Biso	1.000	Al
Al1	1.000	0.125	0.925	0.300	Biso	1.000	Al
Al1	1.000	0.125	0.975	0.325	Biso	1.000	Al
Al1	1.000	0.175	0.925	0.325	Biso	1.000	Al
Al1	1.000	0.175	0.975	0.300	Biso	1.000	Al
Al1	1.000	0.125	0.925	0.350	Biso	1.000	Al
Al1	1.000	0.125	0.975	0.375	Biso	1.000	Al
Al1	1.000	0.175	0.925	0.375	Biso	1.000	Al
Al1	1.000	0.175	0.975	0.350	Biso	1.000	Al
Al1	1.000	0.125	0.925	0.400	Biso	1.000	Al
Al1	1.000	0.125	0.975	0.425	Biso	1.000	Al
Al1	1.000	0.175	0.925	0.425	Biso	1.000	Al
Al1	1.000	0.175	0.975	0.400	Biso	1.000	Al
Al1	1.000	0.125	0.925	0.450	Biso	1.000	Al
Al1	1.000	0.125	0.975	0.475	Biso	1.000	Al
Al1	1.000	0.175	0.925	0.475	Biso	1.000	Al
Al1	1.000	0.175	0.975	0.450	Biso	1.000	Al
Al1	1.000	0.125	0.925	0.500	Biso	1.000	Al
Al1	1.000	0.125	0.975	0.525	Biso	1.000	Al
Al1	1.000	0.175	0.925	0.525	Biso	1.000	Al
Al1	1.000	0.175	0.975	0.500	Biso	1.000	Al
Al1	1.000	0.125	0.925	0.550	Biso	1.000	Al
Al1	1.000	0.125	0.975	0.575	Biso	1.000	Al
Al1	1.000	0.175	0.925	0.575	Biso	1.000	Al
Al1	1.000	0.175	0.975	0.550	Biso	1.000	Al
Al1	1.000	0.125	0.925	0.600	Biso	1.000	Al
Al1	1.000	0.125	0.975	0.625	Biso	1.000	Al
Al1	1.000	0.175	0.925	0.625	Biso	1.000	Al
Al1	1.000	0.175	0.975	0.600	Biso	1.000	Al
Al1	1.000	0.125	0.925	0.650	Biso	1.000	Al
Al1	1.000	0.125	0.975	0.675	Biso	1.000	Al
Al1	1.000	0.175	0.925	0.675	Biso	1.000	Al
Al1	1.000	0.175	0.975	0.650	Biso	1.000	Al
Al1	1.000	0.125	0.925	0.700	Biso	1.000	Al
Al1	1.000	0.125	0.975	0.725	Biso	1.000	Al
Al1	1.000	0.175	0.925	0.725	Biso	1.000	Al
Al1	1.000	0.175	0.975	0.700	Biso	1.000	Al
Al1	1.000	0.125	0.925	0.750	Biso	1.000	Al
Al1	1.000	0.125	0.975	0.775	Biso	1.000	Al
Al1	1.000	0.175	0.925	0.775	Biso	1.000	Al
Al1	1.000	0.175	0.975	0.750	Biso	1.000	Al
Al1	1.000	0.125	0.925	0.800	Biso	1.000	Al
Al1	1.000	0.125	0.975	0.825	Biso	1.000	Al
Al1	1.000	0.175	0.925	0.825	Biso	1.000	Al
Al1	1.000	0.175	0.975	0.800	Biso	1.000	Al
Al1	1.000	0.125	0.925	0.850	Biso	1.000	Al
Al1	1.000	0.125	0.975	0.875	Biso	1.000	Al
Al1	1.000	0.175	0.925	0.875	Biso	1.000	Al
Al1	1.000	0.175	0.975	0.850	Biso	1.000	Al
Al1	1.000	0.125	0.925	0.900	Biso	1.000	Al
Al1	1.000	0.125	0.975	0.925	Biso	1.000	Al
Al1	1.000	0.175	0.925	0.925	Biso	1.000	Al
Al1	1.000	0.175	0.975	0.900	Biso	1.000	Al
Al1	1.000	0.125	0.925	0.950	Biso	1.000	Al
Al1	1.000	0.125	0.975	0.975	Biso	1.000	Al
Al1	1.000	0.175	0.925	0.975	Biso	1.000	Al
Al1	1.000	0.175	0.975	0.950	Biso	1.000	Al
Al1	1.000	0.225	0.025	0.000	Biso	1.000	Al
Al1	1.000	0.225	0.075	0.025	Biso	1.000	Al
Al1	1.000	0.275	0.025	0.025	Biso	1.000	Al
Al1	1.000	0.275	0.075	0.000	Biso	1.000	Al
Al1	1.000	0.225	0.025	0.050	Biso	1.000	Al
Al1	1.000	0.225	0.075	0.075	Biso	1.000	Al
Al1	1.000	0.275	0.025	0.075	Biso	1.000	Al
Al1	1.000	0.275	0.075	0.050	Biso	1.000	Al
Al1	1.000	0.225	0.025	0.100	Biso	1.000	Al
Al1	1.000	0.225	0.075	0.125	Biso	1.000	Al
Al1	1.000	0.275	0.025	0.125	Biso	1.000	Al
Al1	1.000	0.275	0.075	0.100	Biso	1.000	Al
Al1	1.000	0.225	0.025	0.150	Biso	1.000	Al
Al1	1.000	0.225	0.075	0.175	Biso	1.000	Al
Al1	1.000	0.275	0.025	0.175	Biso	1.000	Al
Al1	1.000	0.275	0.075	0.150	Biso	1.000	Al
Al1	1.000	0.225	0.025	0.200	Biso	1.000	Al
Al1	1.000	0.225	0.075	0.225	Biso	1.000	Al
Al1	1.000	0.275	0.025	0.225	Biso	1.000	Al
Al1	1.000	0.275	0.075	0.200	Biso	1.000	Al
Al1	1.000	0.225	0.025	0.250	Biso	1.000	Al
Al1	1.000	0.225	0.075	0.275	Biso	1.000	Al
Al1	1.000	0.275	0.025	0.275	Biso	1.000	Al
Al1	1.000	0.275	0.075	0.250	Biso	1.000	Al
Al1	1.000	0.225	0.025	0.300	Biso	1.000	Al
Al1	1.000	0.225	0.075	0.325	Biso	1.000	Al
Al1	1.000	0.275	0.025	0.325	Biso	1.000	Al
Al1	1.000	0.275	0.075	0.300	Biso	1.000	Al
Al1	1.000	0.225	0.025	0.350	Biso	1.000	Al
Al1	1.000	0.225	0.075	0.375	Biso	1.000	Al
Al1	1.000	0.275	0.025	0.375	Biso	1.000	Al
Al1	1.000	0.275	0.075	0.350	Biso	1.000	Al
Al1	1.000	0.225	0.025	0.400	Biso	1.000	Al
Al1	1.000	0.225	0.075	0.425	Biso	1.000	Al
Al1	1.000	0.275	0.025	0.425	Biso	1.000	Al
Al1	1.000	0.275	0.075	0.400	Biso	1.000	Al
Al1	1.000	0.225	0.025	0.450	Biso	1.000	Al
Al1	1.000	0.225	0.075	0.475	Biso	1.000	Al
Al1	1.000	0.275	0.025	0.475	Biso	1.000	Al
Al1	1.000	0.275	0.075	0.450	Biso	1.000	Al
Al1	1.000	0.225	0.025	0.500	Biso	1.000	Al
Al1	1.000	0.225	0.075	0.525	Biso	1.000	Al
Al1	1.000	0.275	0.025	0.525	Biso	1.000	Al
Al1	1.000	0.275	0.075	0.500	Biso	1.000	Al
Al1	1.000	0.225	0.025	0.550	Biso	1.000	Al
Al1	1.000	0.225	0.075	0.575	Biso	1.000	Al
Al1	1.000	0.275	0.025	0.575	Biso	1.000	Al
Al1	1.000	0.275	0.075	0.550	Biso	1.000	Al
Al1	1.000	0.225	0.025	0.600	Biso	1.000	Al
Al1	1.000	0.225	0.075	0.625	Biso	1.000	Al
Al1	1.000	0.275	0.025	0.625	Biso	1.000	Al
Al1	1.000	0.275	0.075	0.600	Biso	1.000	Al
Al1	1.000	0.225	0.025	0.650	Biso	1.000	Al
Al1	1.000	0.225	0.075	0.675	Biso	1.000	Al
Al1	1.000	0.275	0.025	0.675	Biso	1.000	Al
Al1	1.000	0.275	0.075	0.650	Biso	1.000	Al
Al1	1.000	0.225	0.025	0.700	Biso	1.000	Al
Al1	1.000	0.225	0.075	0.725	Biso	1.000	Al
Al1	1.000	0.275	0.025	0.725	Biso	1.000	Al
Al1	1.000	0.275	0.075	0.700	Biso	1.000	Al
Al1	1.000	0.225	0.025	0.750	Biso	1.000	Al
Al1	1.000	0.225	0.075	0.775	Biso	1.000	Al
Al1	1.000	0.275	0.025	0.775	Biso	1.000	Al
Al1	1.000	0.275	0.075	0.750	Biso	1.000	Al
Al1	1.000	0.225	0.025	0.800	Biso	1.000	Al
Al1	1.000	0.225	0.075	0.825	Biso	1.000	Al
Al1	1.000	0.275	0.025	0.825	Biso	1.000	Al
Al1	1.000	0.275	0.075	0.800	Biso	1.000	Al
Al1	1.000	0.225	0.025	0.850	Biso	1.000	Al
Al1	1.000	0.225	0.075	0.875	Biso	1.000	Al
Al1	1.000	0.275	0.025	0.875	Biso	1.000	Al
Al1	1.000	0.275	0.075	0.850	Biso	1.000	Al
Al1	1.000	0.225	0.025	0.900	Biso	1.000	Al
Al1	1.000	0.225	0.075	0.925	Biso	1.000	Al
Al1	1.000	0.275	0.025	0.925	Biso	1.000	Al
Al1	1.000	0.275	0.075	0.900	Biso	1.000	Al
Al1	1.000	0.225	0.025	0.950	Biso	1.000	Al
Al1	1.000	0.225	0.075	0.975	Biso	1.000	Al
Al1	1.000	0.275	0.025	0.975	Biso	1.000	Al
Al1	1.000	0.275	0.075	0.950	Biso	1.000	Al
Al1	1.000	0.225	0.125	0.000	Biso	1.000	Al
Al1	1.000	0.225	0.175	0.025	Biso	1.000	Al
Al1	1.000	0.275	0.125	0.025	Biso	1.000	Al
Al1	1.000	0.275	0.175	0.000	Biso	1.000	Al
Al1	1.000	0.225	0.125	0.050	Biso	1.000	Al
Al1	1.000	0.225	0.175	0.075	Biso	1.000	Al
Al1	1.000	0.275	0.125	0.075	Biso	1.000	Al
Al1	1.000	0.275	0.175	0.050	Biso	1.000	Al
Al1	1.000	0.225	0.125	0.100	Biso	1.000	Al
Al1	1.000	0.225	0.175	0.125	Biso	1.000	Al
Al1	1.000	0.275	0.125	0.125	Biso	1.000	Al
Al1	1.000	0.275	0.175	0.100	Biso	1.000	Al
Al1	1.000	0.225	0.125	0.150	Biso	1.000	Al
Al1	1.000	0.225	0.175	0.175	Biso	1.000	Al
Al1	1.000	0.275	0.125	0.175	Biso	1.000	Al
Al1	1.000	0.275	0.175	0.150	Biso	1.000	Al
Al1	1.000	0.225	0.125	0.200	Biso	1.000	Al
Al1	1.000	0.225	0.175	0.225	Biso	1.000	Al
Al1	1.000	0.275	0.125	0.225	Biso	1.000	Al
Al1	1.000	0.275	0.175	0.200	Biso	1.000	Al
Al1	1.000	0.225	0.125	0.250	Biso	1.000	Al
Al1	1.000	0.225	0.175	0.275	Biso	1.000	Al
Al1	1.000	0.275	0.125	0.275	Biso	1.000	Al
Al1	1.000	0.275	0.175	0.250	Biso	1.000	Al
Al1	1.000	0.225	0.125	0.300	Biso	1.000	Al
Al1	1.000	0.225	0.175	0.325	Biso	1.000	Al
Al1	1.000	0.275	0.125	0.325	Biso	1.000	Al
Al1	1.000	0.275	0.175	0.300	Biso	1.000	Al
Al1	1.000	0.225	0.125	0.350	Biso	1.000	Al
Al1	1.000	0.225	0.175	0.375	Biso	1.000	Al
Al1	1.000	0.275	0.125	0.375	Biso	1.000	Al
Al1	1.000	0.275	0.175	0.350	Biso	1.000	Al
Al1	1.000	0.225	0.125	0.400	Biso	1.000	Al
Al1	1.000	0.225	0.175	0.425	Biso	1.000	Al
Al1	1.000	0.275	0.125	0.425	Biso	1.000	Al
Al1	1.000	0.275	0.175	0.400	Biso	1.000	Al
Al1	1.000	0.225	0.125	0.450	Biso	1.000	Al
Al1	1.000	0.225	0.175	0.475	Biso	1.000	Al
Al1	1.000	0.275	0.125	0.475	Biso	1.000	Al
Al1	1.000	0.275	0.175	0.450	Biso	1.000	Al
Al1	1.000	0.225	0.125	0.500	Biso	1.000	Al
Al1	1.000	0.225	0.175	0.525	Biso	1.000	Al
Al1	1.000	0.275	0.125	0.525	Biso	1.000	Al
Al1	1.000	0.275	0.175	0.500	Biso	1.000	Al
Al1	1.000	0.225	0.125	0.550	Biso	1.000	Al
Al1	1.000	0.225	0.175	0.575	Biso	1.000	Al
Al1	1.000	0.275	0.125	0.575	Biso	1.000	Al
Al1	1.000	0.275	0.175	0.550	Biso	1.000	Al
Al1	1.000	0.225	0.125	0.600	Biso	1.000	Al
Al1	1.000	0.225	0.175	0.625	Biso	1.000	Al
Al1	1.000	0.275	0.125	0.625	Biso	1.000	Al
Al1	1.000	0.275	0.175	0.600	Biso	1.000	Al
Al1	1.000	0.225	0.125	0.650	Biso	1.000	Al
Al1	1.000	0.225	0.175	0.675	Biso	1.000	Al
Al1	1.000	0.275	0.125	0.675	Biso	1.000	Al
Al1	1.000	0.275	0.175	0.650	Biso	1.000	Al
Al1	1.000	0.225	0.125	0.700	Biso	1.000	Al
Al1	1.000	0.225	0.175	0.725	Biso	1.000	Al
Al1	1.000	0.275	0.125	0.725	Biso	1.000	Al
Al1	1.000	0.275	0.175	0.700	Biso	1.000	Al
Al1	1.000	0.225	0.125	0.750	Biso	1.000	Al
Al1	1.000	0.225	0.175	0.775	Biso	1.000	Al
Al1	1.000	0.275	0.125	0.775	Biso	1.000	Al
Al1	1.000	0.275	0.175	0.750	Biso	1.000	Al
Al1	1.000	0.225	0.125	0.800	Biso	1.000	Al
Al1	1.000	0.225	0.175	0.825	Biso	1.000	Al
Al1	1.000	0.275	0.125	0.825	Biso	1.000	Al
Al1	1.000	0.275	0.175	0.800	Biso	1.000	Al
Al1	1.000	0.225	0.125	0.850	Biso	1.000	Al
Al1	1.000	0.225	0.175	0.875	Biso	1.000	Al
Al1	1.000	0.275	0.125	0.875	Biso	1.000	Al
Al1	1.000	0.275	0.175	0.850	Biso	1.000	Al
Al1	1.000	0.225	0.125	0.900	Biso	1.000	Al
Al1	1.000	0.225	0.175	0.925	Biso	1.000	Al
Al1	1.000	0.275	0.125	0.925	Biso	1.000	Al
Al1	1.000	0.275	0.175	0.900	Biso	1.000	Al
Al1	1.000	0.225	0.125	0.950	Biso	1.000	Al
Al1	1.000	0.225	0.175	0.975	Biso	1.000	Al
Al1	1.000	0.275	0.125	0.975	Biso	1.000	Al
Al1	1.000	0.275	0.175	0.950	Biso	1.000	Al
Al1	1.000	0.225	0.225	0.000	Biso	1.000	Al
Al1	1.000	0.225	0.275	0.025	Biso	1.000	Al
Al1	1.000	0.275	0.225	0.025	Biso	1.000	Al
Al1	1.000	0.275	0.275	0.000	Biso	1.000	Al
Al1	1.000	0.225	0.225	0.050	Biso	1.000	Al
Al1	1.000	0.225	0.275	0.075	Biso	1.000	Al
Al1	1.000	0.275	0.225	0.075	Biso	1.000	Al
Al1	1.000	0.275	0.275	0.050	Biso	1.000	Al
Al1	1.000	0.225	0.225	0.100	Biso	1.000	Al
Al1	1.000	0.225	0.275	0.125	Biso	1.000	Al
Al1	1.000	0.275	0.225	0.125	Biso	1.000	Al
Al1	1.000	0.275	0.275	0.100	Biso	1.000	Al
Al1	1.000	0.225	0.225	0.150	Biso	1.000	Al
Al1	1.000	0.225	0.275	0.175	Biso	1.000	Al
Al1	1.000	0.275	0.225	0.175	Biso	1.000	Al
Al1	1.000	0.275	0.275	0.150	Biso	1.000	Al
Al1	1.000	0.225	0.225	0.200	Biso	1.000	Al
Al1	1.000	0.225	0.275	0.225	Biso	1.000	Al
Al1	1.000	0.275	0.225	0.225	Biso	1.000	Al
Al1	1.000	0.275	0.275	0.200	Biso	1.000	Al
Al1	1.000	0.225	0.225	0.250	Biso	1.000	Al
Al1	1.000	0.225	0.275	0.275	Biso	1.000	Al
Al1	1.000	0.275	0.225	0.275	Biso	1.000	Al
Al1	1.000	0.275	0.275	0.250	Biso	1.000	Al
Al1	1.000	0.225	0.225	0.300	Biso	1.000	Al
Al1	1.000	0.225	0.275	0.325	Biso	1.000	Al
Al1	1.000	0.275	0.225	0.325	Biso	1.000	Al
Al1	1.000	0.275	0.275	0.300	Biso	1.000	Al
Al1	1.000	0.225	0.225	0.350	Biso	1.000	Al
Al1	1.000	0.225	0.275	0.375	Biso	1.000	Al
Al1	1.000	0.275	0.225	0.375	Biso	1.000	Al
Al1	1.000	0.275	0.275	0.350	Biso	1.000	Al
Al1	1.000	0.225	0.225	0.400	Biso	1.000	Al
Al1	1.000	0.225	0.275	0.425	Biso	1.000	Al
Al1	1.000	0.275	0.225	0.425	Biso	1.000	Al
Al1	1.000	0.275	0.275	0.400	Biso	1.000	Al
Al1	1.000	0.225	0.225	0.450	Biso	1.000	Al
Al1	1.000	0.225	0.275	0.475	Biso	1.000	Al
Al1	1.000	0.275	0.225	0.475	Biso	1.000	Al
Al1	1.000	0.275	0.275	0.450	Biso	1.000	Al
Al1	1.000	0.225	0.225	0.500	Biso	1.000	Al
Al1	1.000	0.225	0.275	0.525	Biso	1.000	Al
Al1	1.000	0.275	0.225	0.525	Biso	1.000	Al
Al1	1.000	0.275	0.275	0.500	Biso	1.000	Al
Al1	1.000	0.225	0.225	0.550	Biso	1.000	Al
Al1	1.000	0.225	0.275	0.575	Biso	1.000	Al
Al1	1.000	0.275	0.225	0.575	Biso	1.000	Al
Al1	1.000	0.275	0.275	0.550	Biso	1.000	Al
Al1	1.000	0.225	0.225	0.600	Biso	1.000	Al
Al1	1.000	0.225	0.275	0.625	Biso	1.000	Al
Al1	1.000	0.275	0.225	0.625	Biso	1.000	Al
Al1	1.000	0.275	0.275	0.600	Biso	1.000	Al
Al1	1.000	0.225	0.225	0.650	Biso	1.000	Al
Al1	1.000	0.225	0.275	0.675	Biso	1.000	Al
Al1	1.000	0.275	0.225	0.675	Biso	1.000	Al
Al1	1.000	0.275	0.275	0.650	Biso	1.000	Al
Al1	1.000	0.225	0.225	0.700	Biso	1.000	Al
Al1	1.000	0.225	0.275	0.725	Biso	1.000	Al
Al1	1.000	0.275	0.225	0.725	Biso	1.000	Al
Al1	1.000	0.275	0.275	0.700	Biso	1.000	Al
Al1	1.000	0.225	0.225	0.750	Biso	1.000	Al
Al1	1.000	0.225	0.275	0.775	Biso	1.000	Al
Al1	1.000	0.275	0.225	0.775	Biso	1.000	Al
Al1	1.000	0.275	0.275	0.750	Biso	1.000	Al
Al1	1.000	0.225	0.225	0.800	Biso	1.000	Al
Al1	1.000	0.225	0.275	0.825	Biso	1.000	Al
Al1	1.000	0.275	0.225	0.825	Biso	1.000	Al
Al1	1.000	0.275	0.275	0.800	Biso	1.000	Al
Al1	1.000	0.225	0.225	0.850	Biso	1.000	Al
Al1	1.000	0.225	0.275	0.875	Biso	1.000	Al
Al1	1.000	0.275	0.225	0.875	Biso	1.000	Al
Al1	1.000	0.275	0.275	0.850	Biso	1.000	Al
Al1	1.000	0.225	0.225	0.900	Biso	1.000	Al
Al1	1.000	0.225	0.275	0.925	Biso	1.000	Al
Al1	1.000	0.275	0.225	0.925	Biso	1.000	Al
Al1	1.000	0.275	0.275	0.900	Biso	1.000	Al
Al1	1.000	0.225	0.225	0.950	Biso	1.000	Al
Al1	1.000	0.225	0.275	0.975	Biso	1.000	Al
Al1	1.000	0.275	0.225	0.975	Biso	1.000	Al
Al1	1.000	0.275	0.275	0.950	Biso	1.000	Al
Al1	1.000	0.225	0.325	0.000	Biso	1.000	Al
Al1	1.000	0.225	0.375	0.025	Biso	1.000	Al
Al1	1.000	0.275	0.325	0.025	Biso	1.000	Al
Al1	1.000	0.275	0.375	0.000	Biso	1.000	Al
Al1	1.000	0.225	0.325	0.050	Biso	1.000	Al
Al1	1.000	0.225	0.375	0.075	Biso	1.000	Al
Al1	1.000	0.275	0.325	0.075	Biso	1.000	Al
Al1	1.000	0.275	0.375	0.050	Biso	1.000	Al
Al1	1.000	0.225	0.325	0.100	Biso	1.000	Al
Al1	1.000	0.225	0.375	0.125	Biso	1.000	Al
Al1	1.000	0.275	0.325	0.125	Biso	1.000	Al
Al1	1.000	0.275	0.375	0.100	Biso	1.000	Al
Al1	1.000	0.225	0.325	0.150	Biso	1.000	Al
Al1	1.000	0.225	0.375	0.175	Biso	1.000	Al
Al1	1.000	0.275	0.325	0.175	Biso	1.000	Al
Al1	1.000	0.275	0.375	0.150	Biso	1.000	Al
Al1	1.000	0.225	0.325	0.200	Biso	1.000	Al
Al1	1.000	0.225	0.375	0.225	Biso	1.000	Al
Al1	1.000	0.275	0.325	0.225	Biso	1.000	Al
Al1	1.000	0.275	0.375	0.200	Biso	1.000	Al
Al1	1.000	0.225	0.325	0.250	Biso	1.000	Al
Al1	1.000	0.225	0.375	0.275	Biso	1.000	Al
Al1	1.000	0.275	0.325	0.275	Biso	1.000	Al
Al1	1.000	0.275	0.375	0.250	Biso	1.000	Al
Al1	1.000	0.225	0.325	0.300	Biso	1.000	Al
Al1	1.000	0.225	0.375	0.325	Biso	1.000	Al
Al1	1.000	0.275	0.325	0.325	Biso	1.000	Al
Al1	1.000	0.275	0.375	0.300	Biso	1.000	Al
Al1	1.000	0.225	0.325	0.350	Biso	1.000	Al
Al1	1.000	0.225	0.375	0.375	Biso	1.000	Al
Al1	1.000	0.275	0.325	0.375	Biso	1.000	Al
Al1	1.000	0.275	0.375	0.350	Biso	1.000	Al
Al1	1.000	0.225	0.325	0.400	Biso	1.000	Al
Al1	1.000	0.225	0.375	0.425	Biso	1.000	Al
Al1	1.000	0.275	0.325	0.425	Biso	1.000	Al
Al1	1.000	0.275	0.375	0.400	Biso	1.000	Al
Al1	1.000	0.225	0.325	0.450	Biso	1.000	Al
Al1	1.000	0.225	0.375	0.475	Biso	1.000	Al
Al1	1.000	0.275	0.325	0.475	Biso	1.000	Al
Al1	1.000	0.275	0.375	0.450	Biso	1.000	Al
Al1	1.000	0.225	0.325	0.500	Biso	1.000	Al
Al1	1.000	0.225	0.375	0.525	Biso	1.000	Al
Al1	1.000	0.275	0.325	0.525	Biso	1.000	Al
Al1	1.000	0.275	0.375	0.500	Biso	1.000	Al
Al1	1.000	0.225	0.325	0.550	Biso	1.000	Al
Al1	1.000	0.225	0.375	0.575	Biso	1.000	Al
Al1	1.000	0.275	0.325	0.575	Biso	1.000	Al
Al1	1.000	0.275	0.375	0.550	Biso	1.000	Al
Al1	1.000	0.225	0.325	0.600	Biso	1.000	Al
Al1	1.000	0.225	0.375	0.625	Biso	1.000	Al
Al1	1.000	0.275	0.325	0.625	Biso	1.000	Al
Al1	1.000	0.275	0.375	0.600	Biso	1.000	Al
Al1	1.000	0.225	0.325	0.650	Biso	1.000	Al
Al1	1.000	0.225	0.375	0.675	Biso	1.000	Al
Al1	1.000	0.275	0.325	0.675	Biso	1.000	Al
Al1	1.000	0.275	0.375	0.650	Biso	1.000	Al
Al1	1.000	0.225	0.325	0.700	Biso	1.000	Al
Al1	1.000	0.225	0.375	0.725	Biso	1.000	Al
Al1	1.000	0.275	0.325	0.725	Biso	1.000	Al
Al1	1.000	0.275	0.375	0.700	Biso	1.000	Al
Al1	1.000	0.225	0.325	0.750	Biso	1.000	Al
Al1	1.000	0.225	0.375	0.775	Biso	1.000	Al
Al1	1.000	0.275	0.325	0.775	Biso	1.000	Al
Al1	1.000	0.275	0.375	0.750	Biso	1.000	Al
Al1	1.000	0.225	0.325	0.800	Biso	1.000	Al
Al1	1.000	0.225	0.375	0.825	Biso	1.000	Al
Al1	1.000	0.275	0.325	0.825	Biso	1.000	Al
Al1	1.000	0.275	0.375	0.800	Biso	1.000	Al
Al1	1.000	0.225	0.325	0.850	Biso	1.000	Al
Al1	1.000	0.225	0.375	0.875	Biso	1.000	Al
Al1	1.000	0.275	0.325	0.875	Biso	1.000	Al
Al1	1.000	0.275	0.375	0.850	Biso	1.000	Al
Al1	1.000	0.225	0.325	0.900	Biso	1.000	Al
Al1	1.000	0.225	0.375	0.925	Biso	1.000	Al
Al1	1.000	0.275	0.325	0.925	Biso	1.000	Al
Al1	1.000	0.275	0.375	0.900	Biso	1.000	Al
Al1	1.000	0.225	0.325	0.950	Biso	1.000	Al
Al1	1.000	0.225	0.375	0.975	Biso	1.000	Al
Al1	1.000	0.275	0.325	0.975	Biso	1.000	Al
Al1	1.000	0.275	0.375	0.950	Biso	1.000	Al
Al1	1.000	0.225	0.425	0.000	Biso	1.000	Al
Al1	1.000	0.225	0.475	0.025	Biso	1.000	Al
Al1	1.000	0.275	0.425	0.025	Biso	1.000	Al
Al1	1.000	0.275	0.475	0.000	Biso	1.000	Al
Al1	1.000	0.225	0.425	0.050	Biso	1.000	Al
Al1	1.000	0.225	0.475	0.075	Biso	1.000	Al
Al1	1.000	0.275	0.425	0.075	Biso	1.000	Al
Al1	1.000	0.275	0.475	0.050	Biso	1.000	Al
Al1	1.000	0.225	0.425	0.100	Biso	1.000	Al
Al1	1.000	0.225	0.475	0.125	Biso	1.000	Al
Al1	1.000	0.275	0.425	0.125	Biso	1.000	Al
Al1	1.000	0.275	0.475	0.100	Biso	1.000	Al
Al1	1.000	0.225	0.425	0.150	Biso	1.000	Al
Al1	1.000	0.225	0.475	0.175	Biso	1.000	Al
Al1	1.000	0.275	0.425	0.175	Biso	1.000	Al
Al1	1.000	0.275	0.475	0.150	Biso	1.000	Al
Al1	1.000	0.225	0.425	0.200	Biso	1.000	Al
Al1	1.000	0.225	0.475	0.225	Biso	1.000	Al
Al1	1.000	0.275	0.425	0.225	Biso	1.000	Al
Al1	1.000	0.275	0.475	0.200	Biso	1.000	Al
Al1	1.000	0.225	0.425	0.250	Biso	1.000	Al
Al1	1.000	0.225	0.475	0.275	Biso	1.000	Al
Al1	1.000	0.275	0.425	0.275	Biso	1.000	Al
Al1	1.000	0.275	0.475	0.250	Biso	1.000	Al
Al1	1.000	0.225	0.425	0.300	Biso	1.000	Al
Al1	1.000	0.225	0.475	0.325	Biso	1.000	Al
Al1	1.000	0.275	0.425	0.325	Biso	1.000	Al
Al1	1.000	0.275	0.475	0.300	Biso	1.000	Al
Al1	1.000	0.225	0.425	0.350	Biso	1.000	Al
Al1	1.000	0.225	0.475	0.375	Biso	1.000	Al
Al1	1.000	0.275	0.425	0.375	Biso	1.000	Al
Al1	1.000	0.275	0.475	0.350	Biso	1.000	Al
Al1	1.000	0.225	0.425	0.400	Biso	1.000	Al
Al1	1.000	0.225	0.475	0.425	Biso	1.000	Al
Al1	1.000	0.275	0.425	0.425	Biso	1.000	Al
Al1	1.000	0.275	0.475	0.400	Biso	1.000	Al
Al1	1.000	0.225	0.425	0.450	Biso	1.000	Al
Al1	1.000	0.225	0.475	0.475	Biso	1.000	Al
Al1	1.000	0.275	0.425	0.475	Biso	1.000	Al
Al1	1.000	0.275	0.475	0.450	Biso	1.000	Al
Al1	1.000	0.225	0.425	0.500	Biso	1.000	Al
Al1	1.000	0.225	0.475	0.525	Biso	1.000	Al
Al1	1.000	0.275	0.425	0.525	Biso	1.000	Al
Al1	1.000	0.275	0.475	0.500	Biso	1.000	Al
Al1	1.000	0.225	0.425	0.550	Biso	1.000	Al
Al1	1.000	0.225	0.475	0.575	Biso	1.000	Al
Al1	1.000	0.275	0.425	0.575	Biso	1.000	Al
Al1	1.000	0.275	0.475	0.550	Biso	1.000	Al
Al1	1.000	0.225	0.425	0.600	Biso	1.000	Al
Al1	1.000	0.225	0.475	0.625	Biso	1.000	Al
Al1	1.000	0.275	0.425	0.625	Biso	1.000	Al
Al1	1.000	0.275	0.475	0.600	Biso	1.000	Al
Al1	1.000	0.225	0.425	0.650	Biso	1.000	Al
Al1	1.000	0.225	0.475	0.675	Biso	1.000	Al
Al1	1.000	0.275	0.425	0.675	Biso	1.000	Al
Al1	1.000	0.275	0.475	0.650	Biso	1.000	Al
Al1	1.000	0.225	0.425	0.700	Biso	1.000	Al
Al1	1.000	0.225	0.475	0.725	Biso	1.000	Al
Al1	1.000	0.275	0.425	0.725	Biso	1.000	Al
Al1	1.000	0.275	0.475	0.700	Biso	1.000	Al
Al1	1.000	0.225	0.425	0.750	Biso	1.000	Al
Al1	1.000	0.225	0.475	0.775	Biso	1.000	Al
Al1	1.000	0.275	0.425	0.775	Biso	1.000	Al
Al1	1.000	0.275	0.475	0.750	Biso	1.000	Al
Al1	1.000	0.225	0.425	0.800	Biso	1.000	Al
Al1	1.000	0.225	0.475	0.825	Biso	1.000	Al
Al1	1.000	0.275	0.425	0.825	Biso	1.000	Al
Al1	1.000	0.275	0.475	0.800	Biso	1.000	Al
Al1	1.000	0.225	0.425	0.850	Biso	1.000	Al
Al1	1.000	0.225	0.475	0.875	Biso	1.000	Al
Al1	1.000	0.275	0.425	0.875	Biso	1.000	Al
Al1	1.000	0.275	0.475	0.850	Biso	1.000	Al
Al1	1.000	0.225	0.425	0.900	Biso	1.000	Al
Al1	1.000	0.225	0.475	0.925	Biso	1.000	Al
Al1	1.000	0.275	0.425	0.925	Biso	1.000	Al
Al1	1.000	0.275	0.475	0.900	Biso	1.000	Al
Al1	1.000	0.225	0.425	0.950	Biso	1.000	Al
Al1	1.000	0.225	0.475	0.975	Biso	1.000	Al
Al1	1.000	0.275	0.425	0.975	Biso	1.000	Al
Al1	1.000	0.275	0.475	0.950	Biso	1.000	Al
Al1	1.000	0.225	0.525	0.000	Biso	1.000	Al
Al1	1.000	0.225	0.575	0.025	Biso	1.000	Al
Al1	1.000	0.275	0.525	0.025	Biso	1.000	Al
Al1	1.000	0.275	0.575	0.000	Biso	1.000	Al
Al1	1.000	0.225	0.525	0.050	Biso	1.000	Al
Al1	1.000	0.225	0.575	0.075	Biso	1.000	Al
Al1	1.000	0.275	0.525	0.075	Biso	1.000	Al
Al1	1.000	0.275	0.575	0.050	Biso	1.000	Al
Al1	1.000	0.225	0.525	0.100	Biso	1.000	Al
Al1	1.000	0.225	0.575	0.125	Biso	1.000	Al
Al1	1.000	0.275	0.525	0.125	Biso	1.000	Al
Al1	1.000	0.275	0.575	0.100	Biso	1.000	Al
Al1	1.000	0.225	0.525	0.150	Biso	1.000	Al
Al1	1.000	0.225	0.575	0.175	Biso	1.000	Al
Al1	1.000	0.275	0.525	0.175	Biso	1.000	Al
Al1	1.000	0.275	0.575	0.150	Biso	1.000	Al
Al1	1.000	0.225	0.525	0.200	Biso	1.000	Al
Al1	1.000	0.225	0.575	0.225	Biso	1.000	Al
Al1	1.000	0.275	0.525	0.225	Biso	1.000	Al
Al1	1.000	0.275	0.575	0.200	Biso	1.000	Al
Al1	1.000	0.225	0.525	0.250	Biso	1.000	Al
Al1	1.000	0.225	0.575	0.275	Biso	1.000	Al
Al1	1.000	0.275	0.525	0.275	Biso	1.000	Al
Al1	1.000	0.275	0.575	0.250	Biso	1.000	Al
Al1	1.000	0.225	0.525	0.300	Biso	1.000	Al
Al1	1.000	0.225	0.575	0.325	Biso	1.000	Al
Al1	1.000	0.275	0.525	0.325	Biso	1.000	Al
Al1	1.000	0.275	0.575	0.300	Biso	1.000	Al
Al1	1.000	0.225	0.525	0.350	Biso	1.000	Al
Al1	1.000	0.225	0.575	0.375	Biso	1.000	Al
Al1	1.000	0.275	0.525	0.375	Biso	1.000	Al
Al1	1.000	0.275	0.575	0.350	Biso	1.000	Al
Al1	1.000	0.225	0.525	0.400	Biso	1.000	Al
Al1	1.000	0.225	0.575	0.425	Biso	1.000	Al
Al1	1.000	0.275	0.525	0.425	Biso	1.000	Al
Al1	1.000	0.275	0.575	0.400	Biso	1.000	Al
Al1	1.000	0.225	0.525	0.450	Biso	1.000	Al
Al1	1.000	0.225	0.575	0.475	Biso	1.000	Al
Al1	1.000	0.275	0.525	0.475	Biso	1.000	Al
Al1	1.000	0.275	0.575	0.450	Biso	1.000	Al
Al1	1.000	0.225	0.525	0.500	Biso	1.000	Al
Al1	1.000	0.225	0.575	0.525	Biso	1.000	Al
Al1	1.000	0.275	0.525	0.525	Biso	1.000	Al
Al1	1.000	0.275	0.575	0.500	Biso	1.000	Al
Al1	1.000	0.225	0.525	0.550	Biso	1.000	Al
Al1	1.000	0.225	0.575	0.575	Biso	1.000	Al
Al1	1.000	0.275	0.525	0.575	Biso	1.000	Al
Al1	1.000	0.275	0.575	0.550	Biso	1.000	Al
Al1	1.000	0.225	0.525	0.600	Biso	1.000	Al
Al1	1.000	0.225	0.575	0.625	Biso	1.000	Al
Al1	1.000	0.275	0.525	0.625	Biso	1.000	Al
Al1	1.000	0.275	0.575	0.600	Biso	1.000	Al
Al1	1.000	0.225	0.525	0.650	Biso	1.000	Al
Al1	1.000	0.225	0.575	0.675	Biso	1.000	Al
Al1	1.000	0.275	0.525	0.675	Biso	1.000	Al
Al1	1.000	0.275	0.575	0.650	Biso	1.000	Al
Al1	1.000	0.225	0.525	0.700	Biso	1.000	Al
Al1	1.000	0.225	0.575	0.725	Biso	1.000	Al
Al1	1.000	0.275	0.525	0.725	Biso	1.000	Al
Al1	1.000	0.275	0.575	0.700	Biso	1.000	Al
Al1	1.000	0.225	0.525	0.750	Biso	1.000	Al
Al1	1.000	0.225	0.575	0.775	Biso	1.000	Al
Al1	1.000	0.275	0.525	0.775	Biso	1.000	Al
Al1	1.000	0.275	0.575	0.750	Biso	1.000	Al
Al1	1.000	0.225	0.525	0.800	Biso	1.000	Al
Al1	1.000	0.225	0.575	0.825	Biso	1.000	Al
Al1	1.000	0.275	0.525	0.825	Biso	1.000	Al
Al1	1.000	0.275	0.575	0.800	Biso	1.000	Al
Al1	1.000	0.225	0.525	0.850	Biso	1.000	Al
Al1	1.000	0.225	0.575	0.875	Biso	1.000	Al
Al1	1.000	0.275	0.525	0.875	Biso	1.000	Al
Al1	1.000	0.275	0.575	0.850	Biso	1.000	Al
Al1	1.000	0.225	0.525	0.900	Biso	1.000	Al
Al1	1.000	0.225	0.575	0.925	Biso	1.000	Al
Al1	1.000	0.275	0.525	0.925	Biso	1.000	Al
Al1	1.000	0.275	0.575	0.900	Biso	1.000	Al
Al1	1.000	0.225	0.525	0.950	Biso	1.000	Al
Al1	1.000	0.225	0.575	0.975	Biso	1.000	Al
Al1	1.000	0.275	0.525	0.975	Biso	1.000	Al
Al1	1.000	0.275	0.575	0.950	Biso	1.000	Al
Al1	1.000	0.225	0.625	0.000	Biso	1.000	Al
Al1	1.000	0.225	0.675	0.025	Biso	1.000	Al
Al1	1.000	0.275	0.625	0.025	Biso	1.000	Al
Al1	1.000	0.275	0.675	0.000	Biso	1.000	Al
Al1	1.000	0.225	0.625	0.050	Biso	1.000	Al
Al1	1.000	0.225	0.675	0.075	Biso	1.000	Al
Al1	1.000	0.275	0.625	0.075	Biso	1.000	Al
Al1	1.000	0.275	0.675	0.050	Biso	1.000	Al
Al1	1.000	0.225	0.625	0.100	Biso	1.000	Al
Al1	1.000	0.225	0.675	0.125	Biso	1.000	Al
Al1	1.000	0.275	0.625	0.125	Biso	1.000	Al
Al1	1.000	0.275	0.675	0.100	Biso	1.000	Al
Al1	1.000	0.225	0.625	0.150	Biso	1.000	Al
Al1	1.000	0.225	0.675	0.175	Biso	1.000	Al
Al1	1.000	0.275	0.625	0.175	Biso	1.000	Al
Al1	1.000	0.275	0.675	0.150	Biso	1.000	Al
Al1	1.000	0.225	0.625	0.200	Biso	1.000	Al
Al1	1.000	0.225	0.675	0.225	Biso	1.000	Al
Al1	1.000	0.275	0.625	0.225	Biso	1.000	Al
Al1	1.000	0.275	0.675	0.200	Biso	1.000	Al
Al1	1.000	0.225	0.625	0.250	Biso	1.000	Al
Al1	1.000	0.225	0.675	0.275	Biso	1.000	Al
Al1	1.000	0.275	0.625	0.275	Biso	1.000	Al
Al1	1.000	0.275	0.675	0.250	Biso	1.000	Al
Al1	1.000	0.225	0.625	0.300	Biso	1.000	Al
Al1	1.000	0.225	0.675	0.325	Biso	1.000	Al
Al1	1.000	0.275	0.625	0.325	Biso	1.000	Al
Al1	1.000	0.275	0.675	0.300	Biso	1.000	Al
Al1	1.000	0.225	0.625	0.350	Biso	1.000	Al
Al1	1.000	0.225	0.675	0.375	Biso	1.000	Al
Al1	1.000	0.275	0.625	0.375	Biso	1.000	Al
Al1	1.000	0.275	0.675	0.350	Biso	1.000	Al
Al1	1.000	0.225	0.625	0.400	Biso	1.000	Al
Al1	1.000	0.225	0.675	0.425	Biso	1.000	Al
Al1	1.000	0.275	0.625	0.425	Biso	1.000	Al
Al1	1.000	0.275	0.675	0.400	Biso	1.000	Al
Al1	1.000	0.225	0.625	0.450	Biso	1.000	Al
Al1	1.000	0.225	0.675	0.475	Biso	1.000	Al
Al1	1.000	0.275	0.625	0.475	Biso	1.000	Al
Al1	1.000	0.275	0.675	0.450	Biso	1.000	Al
Al1	1.000	0.225	0.625	0.500	Biso	1.000	Al
Al1	1.000	0.225	0.675	0.525	Biso	1.000	Al
Al1	1.000	0.275	0.625	0.525	Biso	1.000	Al
Al1	1.000	0.275	0.675	0.500	Biso	1.000	Al
Al1	1.000	0.225	0.625	0.550	Biso	1.000	Al
Al1	1.000	0.225	0.675	0.575	Biso	1.000	Al
Al1	1.000	0.275	0.625	0.575	Biso	1.000	Al
Al1	1.000	0.275	0.675	0.550	Biso	1.000	Al
Al1	1.000	0.225	0.625	0.600	Biso	1.000	Al
Al1	1.000	0.225	0.675	0.625	Biso	1.000	Al
Al1	1.000	0.275	0.625	0.625	Biso	1.000	Al
Al1	1.000	0.275	0.675	0.600	Biso	1.000	Al
Al1	1.000	0.225	0.625	0.650	Biso	1.000	Al
Al1	1.000	0.225	0.675	0.675	Biso	1.000	Al
Al1	1.000	0.275	0.625	0.675	Biso	1.000	Al
Al1	1.000	0.275	0.675	0.650	Biso	1.000	Al
Al1	1.000	0.225	0.625	0.700	Biso	1.000	Al
Al1	1.000	0.225	0.675	0.725	Biso	1.000	Al
Al1	1.000	0.275	0.625	0.725	Biso	1.000	Al
Al1	1.000	0.275	0.675	0.700	Biso	1.000	Al
Al1	1.000	0.225	0.625	0.750	Biso	1.000	Al
Al1	1.000	0.225	0.675	0.775	Biso	1.000	Al
Al1	1.000	0.275	0.625	0.775	Biso	1.000	Al
Al1	1.000	0.275	0.675	0.750	Biso	1.000	Al
Al1	1.000	0.225	0.625	0.800	Biso	1.000	Al
Al1	1.000	0.225	0.675	0.825	Biso	1.000	Al
Al1	1.000	0.275	0.625	0.825	Biso	1.000	Al
Al1	1.000	0.275	0.675	0.800	Biso	1.000	Al
Al1	1.000	0.225	0.625	0.850	Biso	1.000	Al
Al1	1.000	0.225	0.675	0.875	Biso	1.000	Al
Al1	1.000	0.275	0.625	0.875	Biso	1.000	Al
Al1	1.000	0.275	0.675	0.850	Biso	1.000	Al
Al1	1.000	0.225	0.625	0.900	Biso	1.000	Al
Al1	1.000	0.225	0.675	0.925	Biso	1.000	Al
Al1	1.000	0.275	0.625	0.925	Biso	1.000	Al
Al1	1.000	0.275	0.675	0.900	Biso	1.000	Al
Al1	1.000	0.225	0.625	0.950	Biso	1.000	Al
Al1	1.000	0.225	0.675	0.975	Biso	1.000	Al
Al1	1.000	0.275	0.625	0.975	Biso	1.000	Al
Al1	1.000	0.275	0.675	0.950	Biso	1.000	Al
Al1	1.000	0.225	0.725	0.000	Biso	1.000	Al
Al1	1.000	0.225	0.775	0.025	Biso	1.000	Al
Al1	1.000	0.275	0.725	0.025	Biso	1.000	Al
Al1	1.000	0.275	0.775	0.000	Biso	1.000	Al
Al1	1.000	0.225	0.725	0.050	Biso	1.000	Al
Al1	1.000	0.225	0.775	0.075	Biso	1.000	Al
Al1	1.000	0.275	0.725	0.075	Biso	1.000	Al
Al1	1.000	0.275	0.775	0.050	Biso	1.000	Al
Al1	1.000	0.225	0.725	0.100	Biso	1.000	Al
Al1	1.000	0.225	0.775	0.125	Biso	1.000	Al
Al1	1.000	0.275	0.725	0.125	Biso	1.000	Al
Al1	1.000	0.275	0.775	0.100	Biso	1.000	Al
Al1	1.000	0.225	0.725	0.150	Biso	1.000	Al
Al1	1.000	0.225	0.775	0.175	Biso	1.000	Al
Al1	1.000	0.275	0.725	0.175	Biso	1.000	Al
Al1	1.000	0.275	0.775	0.150	Biso	1.000	Al
Al1	1.000	0.225	0.725	0.200	Biso	1.000	Al
Al1	1.000	0.225	0.775	0.225	Biso	1.000	Al
Al1	1.000	0.275	0.725	0.225	Biso	1.000	Al
Al1	1.000	0.275	0.775	0.200	Biso	1.000	Al
Al1	1.000	0.225	0.725	0.250	Biso	1.000	Al
Al1	1.000	0.225	0.775	0.275	Biso	1.000	Al
Al1	1.000	0.275	0.725	0.275	Biso	1.000	Al
Al1	1.000	0.275	0.775	0.250	Biso	1.000	Al
Al1	1.000	0.225	0.725	0.300	Biso	1.000	Al
Al1	1.000	0.225	0.775	0.325	Biso	1.000	Al
Al1	1.000	0.275	0.725	0.325	Biso	1.000	Al
Al1	1.000	0.275	0.775	0.300	Biso	1.000	Al
Al1	1.000	0.225	0.725	0.350	Biso	1.000	Al
Al1	1.000	0.225	0.775	0.375	Biso	1.000	Al
Al1	1.000	0.275	0.725	0.375	Biso	1.000	Al
Al1	1.000	0.275	0.775	0.350	Biso	1.000	Al
Al1	1.000	0.225	0.725	0.400	Biso	1.000	Al
Al1	1.000	0.225	0.775	0.425	Biso	1.000	Al
Al1	1.000	0.275	0.725	0.425	Biso	1.000	Al
Al1	1.000	0.275	0.775	0.400	Biso	1.000	Al
Al1	1.000	0.225	0.725	0.450	Biso	1.000	Al
Al1	1.000	0.225	0.775	0.475	Biso	1.000	Al
Al1	1.000	0.275	0.725	0.475	Biso	1.000	Al
Al1	1.000	0.275	0.775	0.450	Biso	1.000	Al
Al1	1.000	0.225	0.725	0.500	Biso	1.000	Al
Al1	1.000	0.225	0.775	0.525	Biso	1.000	Al
Al1	1.000	0.275	0.725	0.525	Biso	1.000	Al
Al1	1.000	0.275	0.775	0.500	Biso	1.000	Al
Al1	1.000	0.225	0.725	0.550	Biso	1.000	Al
Al1	1.000	0.225	0.775	0.575	Biso	1.000	Al
Al1	1.000	0.275	0.725	0.575	Biso	1.000	Al
Al1	1.000	0.275	0.775	0.550	Biso	1.000	Al
Al1	1.000	0.225	0.725	0.600	Biso	1.000	Al
Al1	1.000	0.225	0.775	0.625	Biso	1.000	Al
Al1	1.000	0.275	0.725	0.625	Biso	1.000	Al
Al1	1.000	0.275	0.775	0.600	Biso	1.000	Al
Al1	1.000	0.225	0.725	0.650	Biso	1.000	Al
Al1	1.000	0.225	0.775	0.675	Biso	1.000	Al
Al1	1.000	0.275	0.725	0.675	Biso	1.000	Al
Al1	1.000	0.275	0.775	0.650	Biso	1.000	Al
Al1	1.000	0.225	0.725	0.700	Biso	1.000	Al
Al1	1.000	0.225	0.775	0.725	Biso	1.000	Al
Al1	1.000	0.275	0.725	0.725	Biso	1.000	Al
Al1	1.000	0.275	0.775	0.700	Biso	1.000	Al
Al1	1.000	0.225	0.725	0.750	Biso	1.000	Al
Al1	1.000	0.225	0.775	0.775	Biso	1.000	Al
Al1	1.000	0.275	0.725	0.775	Biso	1.000	Al
Al1	1.000	0.275	0.775	0.750	Biso	1.000	Al
Al1	1.000	0.225	0.725	0.800	Biso	1.000	Al
Al1	1.000	0.225	0.775	0.825	Biso	1.000	Al
Al1	1.000	0.275	0.725	0.825	Biso	1.000	Al
Al1	1.000	0.275	0.775	0.800	Biso	1.000	Al
Al1	1.000	0.225	0.725	0.850	Biso	1.000	Al
Al1	1.000	0.225	0.775	0.875	Biso	1.000	Al
Al1	1.000	0.275	0.725	0.875	Biso	1.000	Al
Al1	1.000	0.275	0.775	0.850	Biso	1.000	Al
Al1	1.000	0.225	0.725	0.900	Biso	1.000	Al
Al1	1.000	0.225	0.775	0.925	Biso	1.000	Al
Al1	1.000	0.275	0.725	0.925	Biso	1.000	Al
Al1	1.000	0.275	0.775	0.900	Biso	1.000	Al
Al1	1.000	0.225	0.725	0.950	Biso	1.000	Al
Al1	1.000	0.225	0.775	0.975	Biso	1.000	Al
Al1	1.000	0.275	0.725	0.975	Biso	1.000	Al
Al1	1.000	0.275	0.775	0.950	Biso	1.000	Al
Al1	1.000	0.225	0.825	0.000	Biso	1.000	Al
Al1	1.000	0.225	0.875	0.025	Biso	1.000	Al
Al1	1.000	0.275	0.825	0.025	Biso	1.000	Al
Al1	1.000	0.275	0.875	0.000	Biso	1.000	Al
Al1	1.000	0.225	0.825	0.050	Biso	1.000	Al
Al1	1.000	0.225	0.875	0.075	Biso	1.000	Al
Al1	1.000	0.275	0.825	0.075	Biso	1.000	Al
Al1	1.000	0.275	0.875	0.050	Biso	1.000	Al
Al1	1.000	0.225	0.825	0.100	Biso	1.000	Al
Al1	1.000	0.225	0.875	0.125	Biso	1.000	Al
Al1	1.000	0.275	0.825	0.125	Biso	1.000	Al
Al1	1.000	0.275	0.875	0.100	Biso	1.000	Al
Al1	1.000	0.225	0.825	0.150	Biso	1.000	Al
Al1	1.000	0.225	0.875	0.175	Biso	1.000	Al
Al1	1.000	0.275	0.825	0.175	Biso	1.000	Al
Al1	1.000	0.275	0.875	0.150	Biso	1.000	Al
Al1	1.000	0.225	0.825	0.200	Biso	1.000	Al
Al1	1.000	0.225	0.875	0.225	Biso	1.000	Al
Al1	1.000	0.275	0.825	0.225	Biso	1.000	Al
Al1	1.000	0.275	0.875	0.200	Biso	1.000	Al
Al1	1.000	0.225	0.825	0.250	Biso	1.000	Al
Al1	1.000	0.225	0.875	0.275	Biso	1.000	Al
Al1	1.000	0.275	0.825	0.275	Biso	1.000	Al
Al1	1.000	0.275	0.875	0.250	Biso	1.000	Al
Al1	1.000	0.225	0.825	0.300	Biso	1.000	Al
Al1	1.000	0.225	0.875	0.325	Biso	1.000	Al
Al1	1.000	0.275	0.825	0.325	Biso	1.000	Al
Al1	1.000	0.275	0.875	0.300	Biso	1.000	Al
Al1	1.000	0.225	0.825	0.350	Biso	1.000	Al
Al1	1.000	0.225	0.875	0.375	Biso	1.000	Al
Al1	1.000	0.275	0.825	0.375	Biso	1.000	Al
Al1	1.000	0.275	0.875	0.350	Biso	1.000	Al
Al1	1.000	0.225	0.825	0.400	Biso	1.000	Al
Al1	1.000	0.225	0.875	0.425	Biso	1.000	Al
Al1	1.000	0.275	0.825	0.425	Biso	1.000	Al
Al1	1.000	0.275	0.875	0.400	Biso	1.000	Al
Al1	1.000	0.225	0.825	0.450	Biso	1.000	Al
Al1	1.000	0.225	0.875	0.475	Biso	1.000	Al
Al1	1.000	0.275	0.825	0.475	Biso	1.000	Al
Al1	1.000	0.275	0.875	0.450	Biso	1.000	Al
Al1	1.000	0.225	0.825	0.500	Biso	1.000	Al
Al1	1.000	0.225	0.875	0.525	Biso	1.000	Al
Al1	1.000	0.275	0.825	0.525	Biso	1.000	Al
Al1	1.000	0.275	0.875	0.500	Biso	1.000	Al
Al1	1.000	0.225	0.825	0.550	Biso	1.000	Al
Al1	1.000	0.225	0.875	0.575	Biso	1.000	Al
Al1	1.000	0.275	0.825	0.575	Biso	1.000	Al
Al1	1.000	0.275	0.875	0.550	Biso	1.000	Al
Al1	1.000	0.225	0.825	0.600	Biso	1.000	Al
Al1	1.000	0.225	0.875	0.625	Biso	1.000	Al
Al1	1.000	0.275	0.825	0.625	Biso	1.000	Al
Al1	1.000	0.275	0.875	0.600	Biso	1.000	Al
Al1	1.000	0.225	0.825	0.650	Biso	1.000	Al
Al1	1.000	0.225	0.875	0.675	Biso	1.000	Al
Al1	1.000	0.275	0.825	0.675	Biso	1.000	Al
Al1	1.000	0.275	0.875	0.650	Biso	1.000	Al
Al1	1.000	0.225	0.825	0.700	Biso	1.000	Al
Al1	1.000	0.225	0.875	0.725	Biso	1.000	Al
Al1	1.000	0.275	0.825	0.725	Biso	1.000	Al
Al1	1.000	0.275	0.875	0.700	Biso	1.000	Al
Al1	1.000	0.225	0.825	0.750	Biso	1.000	Al
Al1	1.000	0.225	0.875	0.775	Biso	1.000	Al
Al1	1.000	0.275	0.825	0.775	Biso	1.000	Al
Al1	1.000	0.275	0.875	0.750	Biso	1.000	Al
Al1	1.000	0.225	0.825	0.800	Biso	1.000	Al
Al1	1.000	0.225	0.875	0.825	Biso	1.000	Al
Al1	1.000	0.275	0.825	0.825	Biso	1.000	Al
Al1	1.000	0.275	0.875	0.800	Biso	1.000	Al
Al1	1.000	0.225	0.825	0.850	Biso	1.000	Al
Al1	1.000	0.225	0.875	0.875	Biso	1.000	Al
Al1	1.000	0.275	0.825	0.875	Biso	1.000	Al
Al1	1.000	0.275	0.875	0.850	Biso	1.000	Al
Al1	1.000	0.225	0.825	0.900	Biso	1.000	Al
Al1	1.000	0.225	0.875	0.925	Biso	1.000	Al
Al1	1.000	0.275	0.825	0.925	Biso	1.000	Al
Al1	1.000	0.275	0.875	0.900	Biso	1.000	Al
Al1	1.000	0.225	0.825	0.950	Biso	1.000	Al
Al1	1.000	0.225	0.875	0.975	Biso	1.000	Al
Al1	1.000	0.275	0.825	0.975	Biso	1.000	Al
Al1	1.000	0.275	0.875	0.950	Biso	1.000	Al
Al1	1.000	0.225	0.925	0.000	Biso	1.000	Al
Al1	1.000	0.225	0.975	0.025	Biso	1.000	Al
Al1	1.000	0.275	0.925	0.025	Biso	1.000	Al
Al1	1.000	0.275	0.975	0.000	Biso	1.000	Al
Al1	1.000	0.225	0.925	0.050	Biso	1.000	Al
Al1	1.000	0.225	0.975	0.075	Biso	1.000	Al
Al1	1.000	0.275	0.925	0.075	Biso	1.000	Al
Al1	1.000	0.275	0.975	0.050	Biso	1.000	Al
Al1	1.000	0.225	0.925	0.100	Biso	1.000	Al
Al1	1.000	0.225	0.975	0.125	Biso	1.000	Al
Al1	1.000	0.275	0.925	0.125	Biso	1.000	Al
Al1	1.000	0.275	0.975	0.100	Biso	1.000	Al
Al1	1.000	0.225	0.925	0.150	Biso	1.000	Al
Al1	1.000	0.225	0.975	0.175	Biso	1.000	Al
Al1	1.000	0.275	0.925	0.175	Biso	1.000	Al
Al1	1.000	0.275	0.975	0.150	Biso	1.000	Al
Al1	1.000	0.225	0.925	0.200	Biso	1.000	Al
Al1	1.000	0.225	0.975	0.225	Biso	1.000	Al
Al1	1.000	0.275	0.925	0.225	Biso	1.000	Al
Al1	1.000	0.275	0.975	0.200	Biso	1.000	Al
Al1	1.000	0.225	0.925	0.250	Biso	1.000	Al
Al1	1.000	0.225	0.975	0.275	Biso	1.000	Al
Al1	1.000	0.275	0.925	0.275	Biso	1.000	Al
Al1	1.000	0.275	0.975	0.250	Biso	1.000	Al
Al1	1.000	0.225	0.925	0.300	Biso	1.000	Al
Al1	1.000	0.225	0.975	0.325	Biso	1.000	Al
Al1	1.000	0.275	0.925	0.325	Biso	1.000	Al
Al1	1.000	0.275	0.975	0.300	Biso	1.000	Al
Al1	1.000	0.225	0.925	0.350	Biso	1.000	Al
Al1	1.000	0.225	0.975	0.375	Biso	1.000	Al
Al1	1.000	0.275	0.925	0.375	Biso	1.000	Al
Al1	1.000	0.275	0.975	0.350	Biso	1.000	Al
Al1	1.000	0.225	0.925	0.400	Biso	1.000	Al
Al1	1.000	0.225	0.975	0.425	Biso	1.000	Al
Al1	1.000	0.275	0.925	0.425	Biso	1.000	Al
Al1	1.000	0.275	0.975	0.400	Biso	1.000	Al
Al1	1.000	0.225	0.925	0.450	Biso	1.000	Al
Al1	1.000	0.225	0.975	0.475	Biso	1.000	Al
Al1	1.000	0.275	0.925	0.475	Biso	1.000	Al
Al1	1.000	0.275	0.975	0.450	Biso	1.000	Al
Al1	1.000	0.225	0.925	0.500	Biso	1.000	Al
Al1	1.000	0.225	0.975	0.525	Biso	1.000	Al
Al1	1.000	0.275	0.925	0.525	Biso	1.000	Al
Al1	1.000	0.275	0.975	0.500	Biso	1.000	Al
Al1	1.000	0.225	0.925	0.550	Biso	1.000	Al
Al1	1.000	0.225	0.975	0.575	Biso	1.000	Al
Al1	1.000	0.275	0.925	0.575	Biso	1.000	Al
Al1	1.000	0.275	0.975	0.550	Biso	1.000	Al
Al1	1.000	0.225	0.925	0.600	Biso	1.000	Al
Al1	1.000	0.225	0.975	0.625	Biso	1.000	Al
Al1	1.000	0.275	0.925	0.625	Biso	1.000	Al
Al1	1.000	0.275	0.975	0.600	Biso	1.000	Al
Al1	1.000	0.225	0.925	0.650	Biso	1.000	Al
Al1	1.000	0.225	0.975	0.675	Biso	1.000	Al
Al1	1.000	0.275	0.925	0.675	Biso	1.000	Al
Al1	1.000	0.275	0.975	0.650	Biso	1.000	Al
Al1	1.000	0.225	0.925	0.700	Biso	1.000	Al
Al1	1.000	0.225	0.975	0.725	Biso	1.000	Al
Al1	1.000	0.275	0.925	0.725	Biso	1.000	Al
Al1	1.000	0.275	0.975	0.700	Biso	1.000	Al
Al1	1.000	0.225	0.925	0.750	Biso	1.000	Al
Al1	1.000	0.225	0.975	0.775	Biso	1.000	Al
Al1	1.000	0.275	0.925	0.775	Biso	1.000	Al
Al1	1.000	0.275	0.975	0.750	Biso	1.000	Al
Al1	1.000	0.225	0.925	0.800	Biso	1.000	Al
Al1	1.000	0.225	0.975	0.825	Biso	1.000	Al
Al1	1.000	0.275	0.925	0.825	Biso	1.000	Al
Al1	1.000	0.275	0.975	0.800	Biso	1.000	Al
Al1	1.000	0.225	0.925	0.850	Biso	1.000	Al
Al1	1.000	0.225	0.975	0.875	Biso	1.000	Al
Al1	1.000	0.275	0.925	0.875	Biso	1.000	Al
Al1	1.000	0.275	0.975	0.850	Biso	1.000	Al
Al1	1.000	0.225	0.925	0.900	Biso	1.000	Al
Al1	1.000	0.225	0.975	0.925	Biso	1.000	Al
Al1	1.000	0.275	0.925	0.925	Biso	1.000	Al
Al1	1.000	0.275	0.975	0.900	Biso	1.000	Al
Al1	1.000	0.225	0.925	0.950	Biso	1.000	Al
Al1	1.000	0.225	0.975	0.975	Biso	1.000	Al
Al1	1.000	0.275	0.925	0.975	Biso	1.000	Al
Al1	1.000	0.275	0.975	0.950	Biso	1.000	Al
Al1	1.000	0.325	0.025	0.000	Biso	1.000	Al
Al1	1.000	0.325	0.075	0.025	Biso	1.000	Al
Al1	1.000	0.375	0.025	0.025	Biso	1.000	Al
Al1	1.000	0.375	0.075	0.000	Biso	1.000	Al
Al1	1.000	0.325	0.025	0.050	Biso	1.000	Al
Al1	1.000	0.325	0.075	0.075	Biso	1.000	Al
Al1	1.000	0.375	0.025	0.075	Biso	1.000	Al
Al1	1.000	0.375	0.075	0.050	Biso	1.000	Al
Al1	1.000	0.325	0.025	0.100	Biso	1.000	Al
Al1	1.000	0.325	0.075	0.125	Biso	1.000	Al
Al1	1.000	0.375	0.025	0.125	Biso	1.000	Al
Al1	1.000	0.375	0.075	0.100	Biso	1.000	Al
Al1	1.000	0.325	0.025	0.150	Biso	1.000	Al
Al1	1.000	0.325	0.075	0.175	Biso	1.000	Al
Al1	1.000	0.375	0.025	0.175	Biso	1.000	Al
Al1	1.000	0.375	0.075	0.150	Biso	1.000	Al
Al1	1.000	0.325	0.025	0.200	Biso	1.000	Al
Al1	1.000	0.325	0.075	0.225	Biso	1.000	Al
Al1	1.000	0.375	0.025	0.225	Biso	1.000	Al
Al1	1.000	0.375	0.075	0.200	Biso	1.000	Al
Al1	1.000	0.325	0.025	0.250	Biso	1.000	Al
Al1	1.000	0.325	0.075	0.275	Biso	1.000	Al
Al1	1.000	0.375	0.025	0.275	Biso	1.000	Al
Al1	1.000	0.375	0.075	0.250	Biso	1.000	Al
Al1	1.000	0.325	0.025	0.300	Biso	1.000	Al
Al1	1.000	0.325	0.075	0.325	Biso	1.000	Al
Al1	1.000	0.375	0.025	0.325	Biso	1.000	Al
Al1	1.000	0.375	0.075	0.300	Biso	1.000	Al
Al1	1.000	0.325	0.025	0.350	Biso	1.000	Al
Al1	1.000	0.325	0.075	0.375	Biso	1.000	Al
Al1	1.000	0.375	0.025	0.375	Biso	1.000	Al
Al1	1.000	0.375	0.075	0.350	Biso	1.000	Al
Al1	1.000	0.325	0.025	0.400	Biso	1.000	Al
Al1	1.000	0.325	0.075	0.425	Biso	1.000	Al
Al1	1.000	0.375	0.025	0.425	Biso	1.000	Al
Al1	1.000	0.375	0.075	0.400	Biso	1.000	Al
Al1	1.000	0.325	0.025	0.450	Biso	1.000	Al
Al1	1.000	0.325	0.075	0.475	Biso	1.000	Al
Al1	1.000	0.375	0.025	0.475	Biso	1.000	Al
Al1	1.000	0.375	0.075	0.450	Biso	1.000	Al
Al1	1.000	0.325	0.025	0.500	Biso	1.000	Al
Al1	1.000	0.325	0.075	0.525	Biso	1.000	Al
Al1	1.000	0.375	0.025	0.525	Biso	1.000	Al
Al1	1.000	0.375	0.075	0.500	Biso	1.000	Al
Al1	1.000	0.325	0.025	0.550	Biso	1.000	Al
Al1	1.000	0.325	0.075	0.575	Biso	1.000	Al
Al1	1.000	0.375	0.025	0.575	Biso	1.000	Al
Al1	1.000	0.375	0.075	0.550	Biso	1.000	Al
Al1	1.000	0.325	0.025	0.600	Biso	1.000	Al
Al1	1.000	0.325	0.075	0.625	Biso	1.000	Al
Al1	1.000	0.375	0.025	0.625	Biso	1.000	Al
Al1	1.000	0.375	0.075	0.600	Biso	1.000	Al
Al1	1.000	0.325	0.025	0.650	Biso	1.000	Al
Al1	1.000	0.325	0.075	0.675	Biso	1.000	Al
Al1	1.000	0.375	0.025	0.675	Biso	1.000	Al
Al1	1.000	0.375	0.075	0.650	Biso	1.000	Al
Al1	1.000	0.325	0.025	0.700	Biso	1.000	Al
Al1	1.000	0.325	0.075	0.725	Biso	1.000	Al
Al1	1.000	0.375	0.025	0.725	Biso	1.000	Al
Al1	1.000	0.375	0.075	0.700	Biso	1.000	Al
Al1	1.000	0.325	0.025	0.750	Biso	1.000	Al
Al1	1.000	0.325	0.075	0.775	Biso	1.000	Al
Al1	1.000	0.375	0.025	0.775	Biso	1.000	Al
Al1	1.000	0.375	0.075	0.750	Biso	1.000	Al
Al1	1.000	0.325	0.025	0.800	Biso	1.000	Al
Al1	1.000	0.325	0.075	0.825	Biso	1.000	Al
Al1	1.000	0.375	0.025	0.825	Biso	1.000	Al
Al1	1.000	0.375	0.075	0.800	Biso	1.000	Al
Al1	1.000	0.325	0.025	0.850	Biso	1.000	Al
Al1	1.000	0.325	0.075	0.875	Biso	1.000	Al
Al1	1.000	0.375	0.025	0.875	Biso	1.000	Al
Al1	1.000	0.375	0.075	0.850	Biso	1.000	Al
Al1	1.000	0.325	0.025	0.900	Biso	1.000	Al
Al1	1.000	0.325	0.075	0.925	Biso	1.000	Al
Al1	1.000	0.375	0.025	0.925	Biso	1.000	Al
Al1	1.000	0.375	0.075	0.900	Biso	1.000	Al
Al1	1.000	0.325	0.025	0.950	Biso	1.000	Al
Al1	1.000	0.325	0.075	0.975	Biso	1.000	Al
Al1	1.000	0.375	0.025	0.975	Biso	1.000	Al
Al1	1.000	0.375	0.075	0.950	Biso	1.000	Al
Al1	1.000	0.325	0.125	0.000	Biso	1.000	Al
Al1	1.000	0.325	0.175	0.025	Biso	1.000	Al
Al1	1.000	0.375	0.125	0.025	Biso	1.000	Al
Al1	1.000	0.375	0.175	0.000	Biso	1.000	Al
Al1	1.000	0.325	0.125	0.050	Biso	1.000	Al
Al1	1.000	0.325	0.175	0.075	Biso	1.000	Al
Al1	1.000	0.375	0.125	0.075	Biso	1.000	Al
Al1	1.000	0.375	0.175	0.050	Biso	1.000	Al
Al1	1.000	0.325	0.125	0.100	Biso	1.000	Al
Al1	1.000	0.325	0.175	0.125	Biso	1.000	Al
Al1	1.000	0.375	0.125	0.125	Biso	1.000	Al
Al1	1.000	0.375	0.175	0.100	Biso	1.000	Al
Al1	1.000	0.325	0.125	0.150	Biso	1.000	Al
Al1	1.000	0.325	0.175	0.175	Biso	1.000	Al
Al1	1.000	0.375	0.125	0.175	Biso	1.000	Al
Al1	1.000	0.375	0.175	0.150	Biso	1.000	Al
Al1	1.000	0.325	0.125	0.200	Biso	1.000	Al
Al1	1.000	0.325	0.175	0.225	Biso	1.000	Al
Al1	1.000	0.375	0.125	0.225	Biso	1.000	Al
Al1	1.000	0.375	0.175	0.200	Biso	1.000	Al
Al1	1.000	0.325	0.125	0.250	Biso	1.000	Al
Al1	1.000	0.325	0.175	0.275	Biso	1.000	Al
Al1	1.000	0.375	0.125	0.275	Biso	1.000	Al
Al1	1.000	0.375	0.175	0.250	Biso	1.000	Al
Al1	1.000	0.325	0.125	0.300	Biso	1.000	Al
Al1	1.000	0.325	0.175	0.325	Biso	1.000	Al
Al1	1.000	0.375	0.125	0.325	Biso	1.000	Al
Al1	1.000	0.375	0.175	0.300	Biso	1.000	Al
Al1	1.000	0.325	0.125	0.350	Biso	1.000	Al
Al1	1.000	0.325	0.175	0.375	Biso	1.000	Al
Al1	1.000	0.375	0.125	0.375	Biso	1.000	Al
Al1	1.000	0.375	0.175	0.350	Biso	1.000	Al
Al1	1.000	0.325	0.125	0.400	Biso	1.000	Al
Al1	1.000	0.325	0.175	0.425	Biso	1.000	Al
Al1	1.000	0.375	0.125	0.425	Biso	1.000	Al
Al1	1.000	0.375	0.175	0.400	Biso	1.000	Al
Al1	1.000	0.325	0.125	0.450	Biso	1.000	Al
Al1	1.000	0.325	0.175	0.475	Biso	1.000	Al
Al1	1.000	0.375	0.125	0.475	Biso	1.000	Al
Al1	1.000	0.375	0.175	0.450	Biso	1.000	Al
Al1	1.000	0.325	0.125	0.500	Biso	1.000	Al
Al1	1.000	0.325	0.175	0.525	Biso	1.000	Al
Al1	1.000	0.375	0.125	0.525	Biso	1.000	Al
Al1	1.000	0.375	0.175	0.500	Biso	1.000	Al
Al1	1.000	0.325	0.125	0.550	Biso	1.000	Al
Al1	1.000	0.325	0.175	0.575	Biso	1.000	Al
Al1	1.000	0.375	0.125	0.575	Biso	1.000	Al
Al1	1.000	0.375	0.175	0.550	Biso	1.000	Al
Al1	1.000	0.325	0.125	0.600	Biso	1.000	Al
Al1	1.000	0.325	0.175	0.625	Biso	1.000	Al
Al1	1.000	0.375	0.125	0.625	Biso	1.000	Al
Al1	1.000	0.375	0.175	0.600	Biso	1.000	Al
Al1	1.000	0.325	0.125	0.650	Biso	1.000	Al
Al1	1.000	0.325	0.175	0.675	Biso	1.000	Al
Al1	1.000	0.375	0.125	0.675	Biso	1.000	Al
Al1	1.000	0.375	0.175	0.650	Biso	1.000	Al
Al1	1.000	0.325	0.125	0.700	Biso	1.000	Al
Al1	1.000	0.325	0.175	0.725	Biso	1.000	Al
Al1	1.000	0.375	0.125	0.725	Biso	1.000	Al
Al1	1.000	0.375	0.175	0.700	Biso	1.000	Al
Al1	1.000	0.325	0.125	0.750	Biso	1.000	Al
Al1	1.000	0.325	0.175	0.775	Biso	1.000	Al
Al1	1.000	0.375	0.125	0.775	Biso	1.000	Al
Al1	1.000	0.375	0.175	0.750	Biso	1.000	Al
Al1	1.000	0.325	0.125	0.800	Biso	1.000	Al
Al1	1.000	0.325	0.175	0.825	Biso	1.000	Al
Al1	1.000	0.375	0.125	0.825	Biso	1.000	Al
Al1	1.000	0.375	0.175	0.800	Biso	1.000	Al
Al1	1.000	0.325	0.125	0.850	Biso	1.000	Al
Al1	1.000	0.325	0.175	0.875	Biso	1.000	Al
Al1	1.000	0.375	0.125	0.875	Biso	1.000	Al
Al1	1.000	0.375	0.175	0.850	Biso	1.000	Al
Al1	1.000	0.325	0.125	0.900	Biso	1.000	Al
Al1	1.000	0.325	0.175	0.925	Biso	1.000	Al
Al1	1.000	0.375	0.125	0.925	Biso	1.000	Al
Al1	1.000	0.375	0.175	0.900	Biso	1.000	Al
Al1	1.000	0.325	0.125	0.950	Biso	1.000	Al
Al1	1.000	0.325	0.175	0.975	Biso	1.000	Al
Al1	1.000	0.375	0.125	0.975	Biso	1.000	Al
Al1	1.000	0.375	0.175	0.950	Biso	1.000	Al
Al1	1.000	0.325	0.225	0.000	Biso	1.000	Al
Al1	1.000	0.325	0.275	0.025	Biso	1.000	Al
Al1	1.000	0.375	0.225	0.025	Biso	1.000	Al
Al1	1.000	0.375	0.275	0.000	Biso	1.000	Al
Al1	1.000	0.325	0.225	0.050	Biso	1.000	Al
Al1	1.000	0.325	0.275	0.075	Biso	1.000	Al
Al1	1.000	0.375	0.225	0.075	Biso	1.000	Al
Al1	1.000	0.375	0.275	0.050	Biso	1.000	Al
Al1	1.000	0.325	0.225	0.100	Biso	1.000	Al
Al1	1.000	0.325	0.275	0.125	Biso	1.000	Al
Al1	1.000	0.375	0.225	0.125	Biso	1.000	Al
Al1	1.000	0.375	0.275	0.100	Biso	1.000	Al
Al1	1.000	0.325	0.225	0.150	Biso	1.000	Al
Al1	1.000	0.325	0.275	0.175	Biso	1.000	Al
Al1	1.000	0.375	0.225	0.175	Biso	1.000	Al
Al1	1.000	0.375	0.275	0.150	Biso	1.000	Al
Al1	1.000	0.325	0.225	0.200	Biso	1.000	Al
Al1	1.000	0.325	0.275	0.225	Biso	1.000	Al
Al1	1.000	0.375	0.225	0.225	Biso	1.000	Al
Al1	1.000	0.375	0.275	0.200	Biso	1.000	Al
Al1	1.000	0.325	0.225	0.250	Biso	1.000	Al
Al1	1.000	0.325	0.275	0.275	Biso	1.000	Al
Al1	1.000	0.375	0.225	0.275	Biso	1.000	Al
Al1	1.000	0.375	0.275	0.250	Biso	1.000	Al
Al1	1.000	0.325	0.225	0.300	Biso	1.000	Al
Al1	1.000	0.325	0.275	0.325	Biso	1.000	Al
Al1	1.000	0.375	0.225	0.325	Biso	1.000	Al
Al1	1.000	0.375	0.275	0.300	Biso	1.000	Al
Al1	1.000	0.325	0.225	0.350	Biso	1.000	Al
Al1	1.000	0.325	0.275	0.375	Biso	1.000	Al
Al1	1.000	0.375	0.225	0.375	Biso	1.000	Al
Al1	1.000	0.375	0.275	0.350	Biso	1.000	Al
Al1	1.000	0.325	0.225	0.400	Biso	1.000	Al
Al1	1.000	0.325	0.275	0.425	Biso	1.000	Al
Al1	1.000	0.375	0.225	0.425	Biso	1.000	Al
Al1	1.000	0.375	0.275	0.400	Biso	1.000	Al
Al1	1.000	0.325	0.225	0.450	Biso	1.000	Al
Al1	1.000	0.325	0.275	0.475	Biso	1.000	Al
Al1	1.000	0.375	0.225	0.475	Biso	1.000	Al
Al1	1.000	0.375	0.275	0.450	Biso	1.000	Al
Al1	1.000	0.325	0.225	0.500	Biso	1.000	Al
Al1	1.000	0.325	0.275	0.525	Biso	1.000	Al
Al1	1.000	0.375	0.225	0.525	Biso	1.000	Al
Al1	1.000	0.375	0.275	0.500	Biso	1.000	Al
Al1	1.000	0.325	0.225	0.550	Biso	1.000	Al
Al1	1.000	0.325	0.275	0.575	Biso	1.000	Al
Al1	1.000	0.375	0.225	0.575	Biso	1.000	Al
Al1	1.000	0.375	0.275	0.550	Biso	1.000	Al
Al1	1.000	0.325	0.225	0.600	Biso	1.000	Al
Al1	1.000	0.325	0.275	0.625	Biso	1.000	Al
Al1	1.000	0.375	0.225	0.625	Biso	1.000	Al
Al1	1.000	0.375	0.275	0.600	Biso	1.000	Al
Al1	1.000	0.325	0.225	0.650	Biso	1.000	Al
Al1	1.000	0.325	0.275	0.675	Biso	1.000	Al
Al1	1.000	0.375	0.225	0.675	Biso	1.000	Al
Al1	1.000	0.375	0.275	0.650	Biso	1.000	Al
Al1	1.000	0.325	0.225	0.700	Biso	1.000	Al
Al1	1.000	0.325	0.275	0.725	Biso	1.000	Al
Al1	1.000	0.375	0.225	0.725	Biso	1.000	Al
Al1	1.000	0.375	0.275	0.700	Biso	1.000	Al
Al1	1.000	0.325	0.225	0.750	Biso	1.000	Al
Al1	1.000	0.325	0.275	0.775	Biso	1.000	Al
Al1	1.000	0.375	0.225	0.775	Biso	1.000	Al
Al1	1.000	0.375	0.275	0.750	Biso	1.000	Al
Al1	1.000	0.325	0.225	0.800	Biso	1.000	Al
Al1	1.000	0.325	0.275	0.825	Biso	1.000	Al
Al1	1.000	0.375	0.225	0.825	Biso	1.000	Al
Al1	1.000	0.375	0.275	0.800	Biso	1.000	Al
Al1	1.000	0.325	0.225	0.850	Biso	1.000	Al
Al1	1.000	0.325	0.275	0.875	Biso	1.000	Al
Al1	1.000	0.375	0.225	0.875	Biso	1.000	Al
Al1	1.000	0.375	0.275	0.850	Biso	1.000	Al
Al1	1.000	0.325	0.225	0.900	Biso	1.000	Al
Al1	1.000	0.325	0.275	0.925	Biso	1.000	Al
Al1	1.000	0.375	0.225	0.925	Biso	1.000	Al
Al1	1.000	0.375	0.275	0.900	Biso	1.000	Al
Al1	1.000	0.325	0.225	0.950	Biso	1.000	Al
Al1	1.000	0.325	0.275	0.975	Biso	1.000	Al
Al1	1.000	0.375	0.225	0.975	Biso	1.000	Al
Al1	1.000	0.375	0.275	0.950	Biso	1.000	Al
Al1	1.000	0.325	0.325	0.000	Biso	1.000	Al
Al1	1.000	0.325	0.375	0.025	Biso	1.000	Al
Al1	1.000	0.375	0.325	0.025	Biso	1.000	Al
Al1	1.000	0.375	0.375	0.000	Biso	1.000	Al
Al1	1.000	0.325	0.325	0.050	Biso	1.000	Al
Al1	1.000	0.325	0.375	0.075	Biso	1.000	Al
Al1	1.000	0.375	0.325	0.075	Biso	1.000	Al
Al1	1.000	0.375	0.375	0.050	Biso	1.000	Al
Al1	1.000	0.325	0.325	0.100	Biso	1.000	Al
Al1	1.000	0.325	0.375	0.125	Biso	1.000	Al
Al1	1.000	0.375	0.325	0.125	Biso	1.000	Al
Al1	1.000	0.375	0.375	0.100	Biso	1.000	Al
Al1	1.000	0.325	0.325	0.150	Biso	1.000	Al
Al1	1.000	0.325	0.375	0.175	Biso	1.000	Al
Al1	1.000	0.375	0.325	0.175	Biso	1.000	Al
Al1	1.000	0.375	0.375	0.150	Biso	1.000	Al
Al1	1.000	0.325	0.325	0.200	Biso	1.000	Al
Al1	1.000	0.325	0.375	0.225	Biso	1.000	Al
Al1	1.000	0.375	0.325	0.225	Biso	1.000	Al
Al1	1.000	0.375	0.375	0.200	Biso	1.000	Al
Al1	1.000	0.325	0.325	0.250	Biso	1.000	Al
Al1	1.000	0.325	0.375	0.275	Biso	1.000	Al
Al1	1.000	0.375	0.325	0.275	Biso	1.000	Al
Al1	1.000	0.375	0.375	0.250	Biso	1.000	Al
Al1	1.000	0.325	0.325	0.300	Biso	1.000	Al
Al1	1.000	0.325	0.375	0.325	Biso	1.000	Al
Al1	1.000	0.375	0.325	0.325	Biso	1.000	Al
Al1	1.000	0.375	0.375	0.300	Biso	1.000	Al
Al1	1.000	0.325	0.325	0.350	Biso	1.000	Al
Al1	1.000	0.325	0.375	0.375	Biso	1.000	Al
Al1	1.000	0.375	0.325	0.375	Biso	1.000	Al
Al1	1.000	0.375	0.375	0.350	Biso	1.000	Al
Al1	1.000	0.325	0.325	0.400	Biso	1.000	Al
Al1	1.000	0.325	0.375	0.425	Biso	1.000	Al
Al1	1.000	0.375	0.325	0.425	Biso	1.000	Al
Al1	1.000	0.375	0.375	0.400	Biso	1.000	Al
Al1	1.000	0.325	0.325	0.450	Biso	1.000	Al
Al1	1.000	0.325	0.375	0.475	Biso	1.000	Al
Al1	1.000	0.375	0.325	0.475	Biso	1.000	Al
Al1	1.000	0.375	0.375	0.450	Biso	1.000	Al
Al1	1.000	0.325	0.325	0.500	Biso	1.000	Al
Al1	1.000	0.325	0.375	0.525	Biso	1.000	Al
Al1	1.000	0.375	0.325	0.525	Biso	1.000	Al
Al1	1.000	0.375	0.375	0.500	Biso	1.000	Al
Al1	1.000	0.325	0.325	0.550	Biso	1.000	Al
Al1	1.000	0.325	0.375	0.575	Biso	1.000	Al
Al1	1.000	0.375	0.325	0.575	Biso	1.000	Al
Al1	1.000	0.375	0.375	0.550	Biso	1.000	Al
Al1	1.000	0.325	0.325	0.600	Biso	1.000	Al
Al1	1.000	0.325	0.375	0.625	Biso	1.000	Al
Al1	1.000	0.375	0.325	0.625	Biso	1.000	Al
Al1	1.000	0.375	0.375	0.600	Biso	1.000	Al
Al1	1.000	0.325	0.325	0.650	Biso	1.000	Al
Al1	1.000	0.325	0.375	0.675	Biso	1.000	Al
Al1	1.000	0.375	0.325	0.675	Biso	1.000	Al
Al1	1.000	0.375	0.375	0.650	Biso	1.000	Al
Al1	1.000	0.325	0.325	0.700	Biso	1.000	Al
Al1	1.000	0.325	0.375	0.725	Biso	1.000	Al
Al1	1.000	0.375	0.325	0.725	Biso	1.000	Al
Al1	1.000	0.375	0.375	0.700	Biso	1.000	Al
Al1	1.000	0.325	0.325	0.750	Biso	1.000	Al
Al1	1.000	0.325	0.375	0.775	Biso	1.000	Al
Al1	1.000	0.375	0.325	0.775	Biso	1.000	Al
Al1	1.000	0.375	0.375	0.750	Biso	1.000	Al
Al1	1.000	0.325	0.325	0.800	Biso	1.000	Al
Al1	1.000	0.325	0.375	0.825	Biso	1.000	Al
Al1	1.000	0.375	0.325	0.825	Biso	1.000	Al
Al1	1.000	0.375	0.375	0.800	Biso	1.000	Al
Al1	1.000	0.325	0.325	0.850	Biso	1.000	Al
Al1	1.000	0.325	0.375	0.875	Biso	1.000	Al
Al1	1.000	0.375	0.325	0.875	Biso	1.000	Al
Al1	1.000	0.375	0.375	0.850	Biso	1.000	Al
Al1	1.000	0.325	0.325	0.900	Biso	1.000	Al
Al1	1.000	0.325	0.375	0.925	Biso	1.000	Al
Al1	1.000	0.375	0.325	0.925	Biso	1.000	Al
Al1	1.000	0.375	0.375	0.900	Biso	1.000	Al
Al1	1.000	0.325	0.325	0.950	Biso	1.000	Al
Al1	1.000	0.325	0.375	0.975	Biso	1.000	Al
Al1	1.000	0.375	0.325	0.975	Biso	1.000	Al
Al1	1.000	0.375	0.375	0.950	Biso	1.000	Al
Al1	1.000	0.325	0.425	0.000	Biso	1.000	Al
Al1	1.000	0.325	0.475	0.025	Biso	1.000	Al
Al1	1.000	0.375	0.425	0.025	Biso	1.000	Al
Al1	1.000	0.375	0.475	0.000	Biso	1.000	Al
Al1	1.000	0.325	0.425	0.050	Biso	1.000	Al
Al1	1.000	0.325	0.475	0.075	Biso	1.000	Al
Al1	1.000	0.375	0.425	0.075	Biso	1.000	Al
Al1	1.000	0.375	0.475	0.050	Biso	1.000	Al
Al1	1.000	0.325	0.425	0.100	Biso	1.000	Al
Al1	1.000	0.325	0.475	0.125	Biso	1.000	Al
Al1	1.000	0.375	0.425	0.125	Biso	1.000	Al
Al1	1.000	0.375	0.475	0.100	Biso	1.000	Al
Al1	1.000	0.325	0.425	0.150	Biso	1.000	Al
Al1	1.000	0.325	0.475	0.175	Biso	1.000	Al
Al1	1.000	0.375	0.425	0.175	Biso	1.000	Al
Al1	1.000	0.375	0.475	0.150	Biso	1.000	Al
Al1	1.000	0.325	0.425	0.200	Biso	1.000	Al
Al1	1.000	0.325	0.475	0.225	Biso	1.000	Al
Al1	1.000	0.375	0.425	0.225	Biso	1.000	Al
Al1	1.000	0.375	0.475	0.200	Biso	1.000	Al
Al1	1.000	0.325	0.425	0.250	Biso	1.000	Al
Al1	1.000	0.325	0.475	0.275	Biso	1.000	Al
Al1	1.000	0.375	0.425	0.275	Biso	1.000	Al
Al1	1.000	0.375	0.475	0.250	Biso	1.000	Al
Al1	1.000	0.325	0.425	0.300	Biso	1.000	Al
Al1	1.000	0.325	0.475	0.325	Biso	1.000	Al
Al1	1.000	0.375	0.425	0.325	Biso	1.000	Al
Al1	1.000	0.375	0.475	0.300	Biso	1.000	Al
Al1	1.000	0.325	0.425	0.350	Biso	1.000	Al
Al1	1.000	0.325	0.475	0.375	Biso	1.000	Al
Al1	1.000	0.375	0.425	0.375	Biso	1.000	Al
Al1	1.000	0.375	0.475	0.350	Biso	1.000	Al
Al1	1.000	0.325	0.425	0.400	Biso	1.000	Al
Al1	1.000	0.325	0.475	0.425	Biso	1.000	Al
Al1	1.000	0.375	0.425	0.425	Biso	1.000	Al
Al1	1.000	0.375	0.475	0.400	Biso	1.000	Al
Al1	1.000	0.325	0.425	0.450	Biso	1.000	Al
Al1	1.000	0.325	0.475	0.475	Biso	1.000	Al
Al1	1.000	0.375	0.425	0.475	Biso	1.000	Al
Al1	1.000	0.375	0.475	0.450	Biso	1.000	Al
Al1	1.000	0.325	0.425	0.500	Biso	1.000	Al
Al1	1.000	0.325	0.475	0.525	Biso	1.000	Al
Al1	1.000	0.375	0.425	0.525	Biso	1.000	Al
Al1	1.000	0.375	0.475	0.500	Biso	1.000	Al
Al1	1.000	0.325	0.425	0.550	Biso	1.000	Al
Al1	1.000	0.325	0.475	0.575	Biso	1.000	Al
Al1	1.000	0.375	0.425	0.575	Biso	1.000	Al
Al1	1.000	0.375	0.475	0.550	Biso	1.000	Al
Al1	1.000	0.325	0.425	0.600	Biso	1.000	Al
Al1	1.000	0.325	0.475	0.625	Biso	1.000	Al
Al1	1.000	0.375	0.425	0.625	Biso	1.000	Al
Al1	1.000	0.375	0.475	0.600	Biso	1.000	Al
Al1	1.000	0.325	0.425	0.650	Biso	1.000	Al
Al1	1.000	0.325	0.475	0.675	Biso	1.000	Al
Al1	1.000	0.375	0.425	0.675	Biso	1.000	Al
Al1	1.000	0.375	0.475	0.650	Biso	1.000	Al
Al1	1.000	0.325	0.425	0.700	Biso	1.000	Al
Al1	1.000	0.325	0.475	0.725	Biso	1.000	Al
Al1	1.000	0.375	0.425	0.725	Biso	1.000	Al
Al1	1.000	0.375	0.475	0.700	Biso	1.000	Al
Al1	1.000	0.325	0.425	0.750	Biso	1.000	Al
Al1	1.000	0.325	0.475	0.775	Biso	1.000	Al
Al1	1.000	0.375	0.425	0.775	Biso	1.000	Al
Al1	1.000	0.375	0.475	0.750	Biso	1.000	Al
Al1	1.000	0.325	0.425	0.800	Biso	1.000	Al
Al1	1.000	0.325	0.475	0.825	Biso	1.000	Al
Al1	1.000	0.375	0.425	0.825	Biso	1.000	Al
Al1	1.000	0.375	0.475	0.800	Biso	1.000	Al
Al1	1.000	0.325	0.425	0.850	Biso	1.000	Al
Al1	1.000	0.325	0.475	0.875	Biso	1.000	Al
Al1	1.000	0.375	0.425	0.875	Biso	1.000	Al
Al1	1.000	0.375	0.475	0.850	Biso	1.000	Al
Al1	1.000	0.325	0.425	0.900	Biso	1.000	Al
Al1	1.000	0.325	0.475	0.925	Biso	1.000	Al
Al1	1.000	0.375	0.425	0.925	Biso	1.000	Al
Al1	1.000	0.375	0.475	0.900	Biso	1.000	Al
Al1	1.000	0.325	0.425	0.950	Biso	1.000	Al
Al1	1.000	0.325	0.475	0.975	Biso	1.000	Al
Al1	1.000	0.375	0.425	0.975	Biso	1.000	Al
Al1	1.000	0.375	0.475	0.950	Biso	1.000	Al
Al1	1.000	0.325	0.525	0.000	Biso	1.000	Al
Al1	1.000	0.325	0.575	0.025	Biso	1.000	Al
Al1	1.000	0.375	0.525	0.025	Biso	1.000	Al
Al1	1.000	0.375	0.575	0.000	Biso	1.000	Al
Al1	1.000	0.325	0.525	0.050	Biso	1.000	Al
Al1	1.000	0.325	0.575	0.075	Biso	1.000	Al
Al1	1.000	0.375	0.525	0.075	Biso	1.000	Al
Al1	1.000	0.375	0.575	0.050	Biso	1.000	Al
Al1	1.000	0.325	0.525	0.100	Biso	1.000	Al
Al1	1.000	0.325	0.575	0.125	Biso	1.000	Al
Al1	1.000	0.375	0.525	0.125	Biso	1.000	Al
Al1	1.000	0.375	0.575	0.100	Biso	1.000	Al
Al1	1.000	0.325	0.525	0.150	Biso	1.000	Al
Al1	1.000	0.325	0.575	0.175	Biso	1.000	Al
Al1	1.000	0.375	0.525	0.175	Biso	1.000	Al
Al1	1.000	0.375	0.575	0.150	Biso	1.000	Al
Al1	1.000	0.325	0.525	0.200	Biso	1.000	Al
Al1	1.000	0.325	0.575	0.225	Biso	1.000	Al
Al1	1.000	0.375	0.525	0.225	Biso	1.000	Al
Al1	1.000	0.375	0.575	0.200	Biso	1.000	Al
Al1	1.000	0.325	0.525	0.250	Biso	1.000	Al
Al1	1.000	0.325	0.575	0.275	Biso	1.000	Al
Al1	1.000	0.375	0.525	0.275	Biso	1.000	Al
Al1	1.000	0.375	0.575	0.250	Biso	1.000	Al
Al1	1.000	0.325	0.525	0.300	Biso	1.000	Al
Al1	1.000	0.325	0.575	0.325	Biso	1.000	Al
Al1	1.000	0.375	0.525	0.325	Biso	1.000	Al
Al1	1.000	0.375	0.575	0.300	Biso	1.000	Al
Al1	1.000	0.325	0.525	0.350	Biso	1.000	Al
Al1	1.000	0.325	0.575	0.375	Biso	1.000	Al
Al1	1.000	0.375	0.525	0.375	Biso	1.000	Al
Al1	1.000	0.375	0.575	0.350	Biso	1.000	Al
Al1	1.000	0.325	0.525	0.400	Biso	1.000	Al
Al1	1.000	0.325	0.575	0.425	Biso	1.000	Al
Al1	1.000	0.375	0.525	0.425	Biso	1.000	Al
Al1	1.000	0.375	0.575	0.400	Biso	1.000	Al
Al1	1.000	0.325	0.525	0.450	Biso	1.000	Al
Al1	1.000	0.325	0.575	0.475	Biso	1.000	Al
Al1	1.000	0.375	0.525	0.475	Biso	1.000	Al
Al1	1.000	0.375	0.575	0.450	Biso	1.000	Al
Al1	1.000	0.325	0.525	0.500	Biso	1.000	Al
Al1	1.000	0.325	0.575	0.525	Biso	1.000	Al
Al1	1.000	0.375	0.525	0.525	Biso	1.000	Al
Al1	1.000	0.375	0.575	0.500	Biso	1.000	Al
Al1	1.000	0.325	0.525	0.550	Biso	1.000	Al
Al1	1.000	0.325	0.575	0.575	Biso	1.000	Al
Al1	1.000	0.375	0.525	0.575	Biso	1.000	Al
Al1	1.000	0.375	0.575	0.550	Biso	1.000	Al
Al1	1.000	0.325	0.525	0.600	Biso	1.000	Al
Al1	1.000	0.325	0.575	0.625	Biso	1.000	Al
Al1	1.000	0.375	0.525	0.625	Biso	1.000	Al
Al1	1.000	0.375	0.575	0.600	Biso	1.000	Al
Al1	1.000	0.325	0.525	0.650	Biso	1.000	Al
Al1	1.000	0.325	0.575	0.675	Biso	1.000	Al
Al1	1.000	0.375	0.525	0.675	Biso	1.000	Al
Al1	1.000	0.375	0.575	0.650	Biso	1.000	Al
Al1	1.000	0.325	0.525	0.700	Biso	1.000	Al
Al1	1.000	0.325	0.575	0.725	Biso	1.000	Al
Al1	1.000	0.375	0.525	0.725	Biso	1.000	Al
Al1	1.000	0.375	0.575	0.700	Biso	1.000	Al
Al1	1.000	0.325	0.525	0.750	Biso	1.000	Al
Al1	1.000	0.325	0.575	0.775	Biso	1.000	Al
Al1	1.000	0.375	0.525	0.775	Biso	1.000	Al
Al1	1.000	0.375	0.575	0.750	Biso	1.000	Al
Al1	1.000	0.325	0.525	0.800	Biso	1.000	Al
Al1	1.000	0.325	0.575	0.825	Biso	1.000	Al
Al1	1.000	0.375	0.525	0.825	Biso	1.000	Al
Al1	1.000	0.375	0.575	0.800	Biso	1.000	Al
Al1	1.000	0.325	0.525	0.850	Biso	1.000	Al
Al1	1.000	0.325	0.575	0.875	Biso	1.000	Al
Al1	1.000	0.375	0.525	0.875	Biso	1.000	Al
Al1	1.000	0.375	0.575	0.850	Biso	1.000	Al
Al1	1.000	0.325	0.525	0.900	Biso	1.000	Al
Al1	1.000	0.325	0.575	0.925	Biso	1.000	Al
Al1	1.000	0.375	0.525	0.925	Biso	1.000	Al
Al1	1.000	0.375	0.575	0.900	Biso	1.000	Al
Al1	1.000	0.325	0.525	0.950	Biso	1.000	Al
Al1	1.000	0.325	0.575	0.975	Biso	1.000	Al
Al1	1.000	0.375	0.525	0.975	Biso	1.000	Al
Al1	1.000	0.375	0.575	0.950	Biso	1.000	Al
Al1	1.000	0.325	0.625	0.000	Biso	1.000	Al
Al1	1.000	0.325	0.675	0.025	Biso	1.000	Al
Al1	1.000	0.375	0.625	0.025	Biso	1.000	Al
Al1	1.000	0.375	0.675	0.000	Biso	1.000	Al
Al1	1.000	0.325	0.625	0.050	Biso	1.000	Al
Al1	1.000	0.325	0.675	0.075	Biso	1.000	Al
Al1	1.000	0.375	0.625	0.075	Biso	1.000	Al
Al1	1.000	0.375	0.675	0.050	Biso	1.000	Al
Al1	1.000	0.325	0.625	0.100	Biso	1.000	Al
Al1	1.000	0.325	0.675	0.125	Biso	1.000	Al
Al1	1.000	0.375	0.625	0.125	Biso	1.000	Al
Al1	1.000	0.375	0.675	0.100	Biso	1.000	Al
Al1	1.000	0.325	0.625	0.150	Biso	1.000	Al
Al1	1.000	0.325	0.675	0.175	Biso	1.000	Al
Al1	1.000	0.375	0.625	0.175	Biso	1.000	Al
Al1	1.000	0.375	0.675	0.150	Biso	1.000	Al
Al1	1.000	0.325	0.625	0.200	Biso	1.000	Al
Al1	1.000	0.325	0.675	0.225	Biso	1.000	Al
Al1	1.000	0.375	0.625	0.225	Biso	1.000	Al
Al1	1.000	0.375	0.675	0.200	Biso	1.000	Al
Al1	1.000	0.325	0.625	0.250	Biso	1.000	Al
Al1	1.000	0.325	0.675	0.275	Biso	1.000	Al
Al1	1.000	0.375	0.625	0.275	Biso	1.000	Al
Al1	1.000	0.375	0.675	0.250	Biso	1.000	Al
Al1	1.000	0.325	0.625	0.300	Biso	1.000	Al
Al1	1.000	0.325	0.675	0.325	Biso	1.000	Al
Al1	1.000	0.375	0.625	0.325	Biso	1.000	Al
Al1	1.000	0.375	0.675	0.300	Biso	1.000	Al
Al1	1.000	0.325	0.625	0.350	Biso	1.000	Al
Al1	1.000	0.325	0.675	0.375	Biso	1.000	Al
Al1	1.000	0.375	0.625	0.375	Biso	1.000	Al
Al1	1.000	0.375	0.675	0.350	Biso	1.000	Al
Al1	1.000	0.325	0.625	0.400	Biso	1.000	Al
Al1	1.000	0.325	0.675	0.425	Biso	1.000	Al
Al1	1.000	0.375	0.625	0.425	Biso	1.000	Al
Al1	1.000	0.375	0.675	0.400	Biso	1.000	Al
Al1	1.000	0.325	0.625	0.450	Biso	1.000	Al
Al1	1.000	0.325	0.675	0.475	Biso	1.000	Al
Al1	1.000	0.375	0.625	0.475	Biso	1.000	Al
Al1	1.000	0.375	0.675	0.450	Biso	1.000	Al
Al1	1.000	0.325	0.625	0.500	Biso	1.000	Al
Al1	1.000	0.325	0.675	0.525	Biso	1.000	Al
Al1	1.000	0.375	0.625	0.525	Biso	1.000	Al
Al1	1.000	0.375	0.675	0.500	Biso	1.000	Al
Al1	1.000	0.325	0.625	0.550	Biso	1.000	Al
Al1	1.000	0.325	0.675	0.575	Biso	1.000	Al
Al1	1.000	0.375	0.625	0.575	Biso	1.000	Al
Al1	1.000	0.375	0.675	0.550	Biso	1.000	Al
Al1	1.000	0.325	0.625	0.600	Biso	1.000	Al
Al1	1.000	0.325	0.675	0.625	Biso	1.000	Al
Al1	1.000	0.375	0.625	0.625	Biso	1.000	Al
Al1	1.000	0.375	0.675	0.600	Biso	1.000	Al
Al1	1.000	0.325	0.625	0.650	Biso	1.000	Al
Al1	1.000	0.325	0.675	0.675	Biso	1.000	Al
Al1	1.000	0.375	0.625	0.675	Biso	1.000	Al
Al1	1.000	0.375	0.675	0.650	Biso	1.000	Al
Al1	1.000	0.325	0.625	0.700	Biso	1.000	Al
Al1	1.000	0.325	0.675	0.725	Biso	1.000	Al
Al1	1.000	0.375	0.625	0.725	Biso	1.000	Al
Al1	1.000	0.375	0.675	0.700	Biso	1.000	Al
Al1	1.000	0.325	0.625	0.750	Biso	1.000	Al
Al1	1.000	0.325	0.675	0.775	Biso	1.000	Al
Al1	1.000	0.375	0.625	0.775	Biso	1.000	Al
Al1	1.000	0.375	0.675	0.750	Biso	1.000	Al
Al1	1.000	0.325	0.625	0.800	Biso	1.000	Al
Al1	1.000	0.325	0.675	0.825	Biso	1.000	Al
Al1	1.000	0.375	0.625	0.825	Biso	1.000	Al
Al1	1.000	0.375	0.675	0.800	Biso	1.000	Al
Al1	1.000	0.325	0.625	0.850	Biso	1.000	Al
Al1	1.000	0.325	0.675	0.875	Biso	1.000	Al
Al1	1.000	0.375	0.625	0.875	Biso	1.000	Al
Al1	1.000	0.375	0.675	0.850	Biso	1.000	Al
Al1	1.000	0.325	0.625	0.900	Biso	1.000	Al
Al1	1.000	0.325	0.675	0.925	Biso	1.000	Al
Al1	1.000	0.375	0.625	0.925	Biso	1.000	Al
Al1	1.000	0.375	0.675	0.900	Biso	1.000	Al
Al1	1.000	0.325	0.625	0.950	Biso	1.000	Al
Al1	1.000	0.325	0.675	0.975	Biso	1.000	Al
Al1	1.000	0.375	0.625	0.975	Biso	1.000	Al
Al1	1.000	0.375	0.675	0.950	Biso	1.000	Al
Al1	1.000	0.325	0.725	0.000	Biso	1.000	Al
Al1	1.000	0.325	0.775	0.025	Biso	1.000	Al
Al1	1.000	0.375	0.725	0.025	Biso	1.000	Al
Al1	1.000	0.375	0.775	0.000	Biso	1.000	Al
Al1	1.000	0.325	0.725	0.050	Biso	1.000	Al
Al1	1.000	0.325	0.775	0.075	Biso	1.000	Al
Al1	1.000	0.375	0.725	0.075	Biso	1.000	Al
Al1	1.000	0.375	0.775	0.050	Biso	1.000	Al
Al1	1.000	0.325	0.725	0.100	Biso	1.000	Al
Al1	1.000	0.325	0.775	0.125	Biso	1.000	Al
Al1	1.000	0.375	0.725	0.125	Biso	1.000	Al
Al1	1.000	0.375	0.775	0.100	Biso	1.000	Al
Al1	1.000	0.325	0.725	0.150	Biso	1.000	Al
Al1	1.000	0.325	0.775	0.175	Biso	1.000	Al
Al1	1.000	0.375	0.725	0.175	Biso	1.000	Al
Al1	1.000	0.375	0.775	0.150	Biso	1.000	Al
Al1	1.000	0.325	0.725	0.200	Biso	1.000	Al
Al1	1.000	0.325	0.775	0.225	Biso	1.000	Al
Al1	1.000	0.375	0.725	0.225	Biso	1.000	Al
Al1	1.000	0.375	0.775	0.200	Biso	1.000	Al
Al1	1.000	0.325	0.725	0.250	Biso	1.000	Al
Al1	1.000	0.325	0.775	0.275	Biso	1.000	Al
Al1	1.000	0.375	0.725	0.275	Biso	1.000	Al
Al1	1.000	0.375	0.775	0.250	Biso	1.000	Al
Al1	1.000	0.325	0.725	0.300	Biso	1.000	Al
Al1	1.000	0.325	0.775	0.325	Biso	1.000	Al
Al1	1.000	0.375	0.725	0.325	Biso	1.000	Al
Al1	1.000	0.375	0.775	0.300	Biso	1.000	Al
Al1	1.000	0.325	0.725	0.350	Biso	1.000	Al
Al1	1.000	0.325	0.775	0.375	Biso	1.000	Al
Al1	1.000	0.375	0.725	0.375	Biso	1.000	Al
Al1	1.000	0.375	0.775	0.350	Biso	1.000	Al
Al1	1.000	0.325	0.725	0.400	Biso	1.000	Al
Al1	1.000	0.325	0.775	0.425	Biso	1.000	Al
Al1	1.000	0.375	0.725	0.425	Biso	1.000	Al
Al1	1.000	0.375	0.775	0.400	Biso	1.000	Al
Al1	1.000	0.325	0.725	0.450	Biso	1.000	Al
Al1	1.000	0.325	0.775	0.475	Biso	1.000	Al
Al1	1.000	0.375	0.725	0.475	Biso	1.000	Al
Al1	1.000	0.375	0.775	0.450	Biso	1.000	Al
Al1	1.000	0.325	0.725	0.500	Biso	1.000	Al
Al1	1.000	0.325	0.775	0.525	Biso	1.000	Al
Al1	1.000	0.375	0.725	0.525	Biso	1.000	Al
Al1	1.000	0.375	0.775	0.500	Biso	1.000	Al
Al1	1.000	0.325	0.725	0.550	Biso	1.000	Al
Al1	1.000	0.325	0.775	0.575	Biso	1.000	Al
Al1	1.000	0.375	0.725	0.575	Biso	1.000	Al
Al1	1.000	0.375	0.775	0.550	Biso	1.000	Al
Al1	1.000	0.325	0.725	0.600	Biso	1.000	Al
Al1	1.000	0.325	0.775	0.625	Biso	1.000	Al
Al1	1.000	0.375	0.725	0.625	Biso	1.000	Al
Al1	1.000	0.375	0.775	0.600	Biso	1.000	Al
Al1	1.000	0.325	0.725	0.650	Biso	1.000	Al
Al1	1.000	0.325	0.775	0.675	Biso	1.000	Al
Al1	1.000	0.375	0.725	0.675	Biso	1.000	Al
Al1	1.000	0.375	0.775	0.650	Biso	1.000	Al
Al1	1.000	0.325	0.725	0.700	Biso	1.000	Al
Al1	1.000	0.325	0.775	0.725	Biso	1.000	Al
Al1	1.000	0.375	0.725	0.725	Biso	1.000	Al
Al1	1.000	0.375	0.775	0.700	Biso	1.000	Al
Al1	1.000	0.325	0.725	0.750	Biso	1.000	Al
Al1	1.000	0.325	0.775	0.775	Biso	1.000	Al
Al1	1.000	0.375	0.725	0.775	Biso	1.000	Al
Al1	1.000	0.375	0.775	0.750	Biso	1.000	Al
Al1	1.000	0.325	0.725	0.800	Biso	1.000	Al
Al1	1.000	0.325	0.775	0.825	Biso	1.000	Al
Al1	1.000	0.375	0.725	0.825	Biso	1.000	Al
Al1	1.000	0.375	0.775	0.800	Biso	1.000	Al
Al1	1.000	0.325	0.725	0.850	Biso	1.000	Al
Al1	1.000	0.325	0.775	0.875	Biso	1.000	Al
Al1	1.000	0.375	0.725	0.875	Biso	1.000	Al
Al1	1.000	0.375	0.775	0.850	Biso	1.000	Al
Al1	1.000	0.325	0.725	0.900	Biso	1.000	Al
Al1	1.000	0.325	0.775	0.925	Biso	1.000	Al
Al1	1.000	0.375	0.725	0.925	Biso	1.000	Al
Al1	1.000	0.375	0.775	0.900	Biso	1.000	Al
Al1	1.000	0.325	0.725	0.950	Biso	1.000	Al
Al1	1.000	0.325	0.775	0.975	Biso	1.000	Al
Al1	1.000	0.375	0.725	0.975	Biso	1.000	Al
Al1	1.000	0.375	0.775	0.950	Biso	1.000	Al
Al1	1.000	0.325	0.825	0.000	Biso	1.000	Al
Al1	1.000	0.325	0.875	0.025	Biso	1.000	Al
Al1	1.000	0.375	0.825	0.025	Biso	1.000	Al
Al1	1.000	0.375	0.875	0.000	Biso	1.000	Al
Al1	1.000	0.325	0.825	0.050	Biso	1.000	Al
Al1	1.000	0.325	0.875	0.075	Biso	1.000	Al
Al1	1.000	0.375	0.825	0.075	Biso	1.000	Al
Al1	1.000	0.375	0.875	0.050	Biso	1.000	Al
Al1	1.000	0.325	0.825	0.100	Biso	1.000	Al
Al1	1.000	0.325	0.875	0.125	Biso	1.000	Al
Al1	1.000	0.375	0.825	0.125	Biso	1.000	Al
Al1	1.000	0.375	0.875	0.100	Biso	1.000	Al
Al1	1.000	0.325	0.825	0.150	Biso	1.000	Al
Al1	1.000	0.325	0.875	0.175	Biso	1.000	Al
Al1	1.000	0.375	0.825	0.175	Biso	1.000	Al
Al1	1.000	0.375	0.875	0.150	Biso	1.000	Al
Al1	1.000	0.325	0.825	0.200	Biso	1.000	Al
Al1	1.000	0.325	0.875	0.225	Biso	1.000	Al
Al1	1.000	0.375	0.825	0.225	Biso	1.000	Al
Al1	1.000	0.375	0.875	0.200	Biso	1.000	Al
Al1	1.000	0.325	0.825	0.250	Biso	1.000	Al
Al1	1.000	0.325	0.875	0.275	Biso	1.000	Al
Al1	1.000	0.375	0.825	0.275	Biso	1.000	Al
Al1	1.000	0.375	0.875	0.250	Biso	1.000	Al
Al1	1.000	0.325	0.825	0.300	Biso	1.000	Al
Al1	1.000	0.325	0.875	0.325	Biso	1.000	Al
Al1	1.000	0.375	0.825	0.325	Biso	1.000	Al
Al1	1.000	0.375	0.875	0.300	Biso	1.000	Al
Al1	1.000	0.325	0.825	0.350	Biso	1.000	Al
Al1	1.000	0.325	0.875	0.375	Biso	1.000	Al
Al1	1.000	0.375	0.825	0.375	Biso	1.000	Al
Al1	1.000	0.375	0.875	0.350	Biso	1.000	Al
Al1	1.000	0.325	0.825	0.400	Biso	1.000	Al
Al1	1.000	0.325	0.875	0.425	Biso	1.000	Al
Al1	1.000	0.375	0.825	0.425	Biso	1.000	Al
Al1	1.000	0.375	0.875	0.400	Biso	1.000	Al
Al1	1.000	0.325	0.825	0.450	Biso	1.000	Al
Al1	1.000	0.325	0.875	0.475	Biso	1.000	Al
Al1	1.000	0.375	0.825	0.475	Biso	1.000	Al
Al1	1.000	0.375	0.875	0.450	Biso	1.000	Al
Al1	1.000	0.325	0.825	0.500	Biso	1.000	Al
Al1	1.000	0.325	0.875	0.525	Biso	1.000	Al
Al1	1.000	0.375	0.825	0.525	Biso	1.000	Al
Al1	1.000	0.375	0.875	0.500	Biso	1.000	Al
Al1	1.000	0.325	0.825	0.550	Biso	1.000	Al
Al1	1.000	0.325	0.875	0.575	Biso	1.000	Al
Al1	1.000	0.375	0.825	0.575	Biso	1.000	Al
Al1	1.000	0.375	0.875	0.550	Biso	1.000	Al
Al1	1.000	0.325	0.825	0.600	Biso	1.000	Al
Al1	1.000	0.325	0.875	0.625	Biso	1.000	Al
Al1	1.000	0.375	0.825	0.625	Biso	1.000	Al
Al1	1.000	0.375	0.875	0.600	Biso	1.000	Al
Al1	1.000	0.325	0.825	0.650	Biso	1.000	Al
Al1	1.000	0.325	0.875	0.675	Biso	1.000	Al
Al1	1.000	0.375	0.825	0.675	Biso	1.000	Al
Al1	1.000	0.375	0.875	0.650	Biso	1.000	Al
Al1	1.000	0.325	0.825	0.700	Biso	1.000	Al
Al1	1.000	0.325	0.875	0.725	Biso	1.000	Al
Al1	1.000	0.375	0.825	0.725	Biso	1.000	Al
Al1	1.000	0.375	0.875	0.700	Biso	1.000	Al
Al1	1.000	0.325	0.825	0.750	Biso	1.000	Al
Al1	1.000	0.325	0.875	0.775	Biso	1.000	Al
Al1	1.000	0.375	0.825	0.775	Biso	1.000	Al
Al1	1.000	0.375	0.875	0.750	Biso	1.000	Al
Al1	1.000	0.325	0.825	0.800	Biso	1.000	Al
Al1	1.000	0.325	0.875	0.825	Biso	1.000	Al
Al1	1.000	0.375	0.825	0.825	Biso	1.000	Al
Al1	1.000	0.375	0.875	0.800	Biso	1.000	Al
Al1	1.000	0.325	0.825	0.850	Biso	1.000	Al
Al1	1.000	0.325	0.875	0.875	Biso	1.000	Al
Al1	1.000	0.375	0.825	0.875	Biso	1.000	Al
Al1	1.000	0.375	0.875	0.850	Biso	1.000	Al
Al1	1.000	0.325	0.825	0.900	Biso	1.000	Al
Al1	1.000	0.325	0.875	0.925	Biso	1.000	Al
Al1	1.000	0.375	0.825	0.925	Biso	1.000	Al
Al1	1.000	0.375	0.875	0.900	Biso	1.000	Al
Al1	1.000	0.325	0.825	0.950	Biso	1.000	Al
Al1	1.000	0.325	0.875	0.975	Biso	1.000	Al
Al1	1.000	0.375	0.825	0.975	Biso	1.000	Al
Al1	1.000	0.375	0.875	0.950	Biso	1.000	Al
Al1	1.000	0.325	0.925	0.000	Biso	1.000	Al
Al1	1.000	0.325	0.975	0.025	Biso	1.000	Al
Al1	1.000	0.375	0.925	0.025	Biso	1.000	Al
Al1	1.000	0.375	0.975	0.000	Biso	1.000	Al
Al1	1.000	0.325	0.925	0.050	Biso	1.000	Al
Al1	1.000	0.325	0.975	0.075	Biso	1.000	Al
Al1	1.000	0.375	0.925	0.075	Biso	1.000	Al
Al1	1.000	0.375	0.975	0.050	Biso	1.000	Al
Al1	1.000	0.325	0.925	0.100	Biso	1.000	Al
Al1	1.000	0.325	0.975	0.125	Biso	1.000	Al
Al1	1.000	0.375	0.925	0.125	Biso	1.000	Al
Al1	1.000	0.375	0.975	0.100	Biso	1.000	Al
Al1	1.000	0.325	0.925	0.150	Biso	1.000	Al
Al1	1.000	0.325	0.975	0.175	Biso	1.000	Al
Al1	1.000	0.375	0.925	0.175	Biso	1.000	Al
Al1	1.000	0.375	0.975	0.150	Biso	1.000	Al
Al1	1.000	0.325	0.925	0.200	Biso	1.000	Al
Al1	1.000	0.325	0.975	0.225	Biso	1.000	Al
Al1	1.000	0.375	0.925	0.225	Biso	1.000	Al
Al1	1.000	0.375	0.975	0.200	Biso	1.000	Al
Al1	1.000	0.325	0.925	0.250	Biso	1.000	Al
Al1	1.000	0.325	0.975	0.275	Biso	1.000	Al
Al1	1.000	0.375	0.925	0.275	Biso	1.000	Al
Al1	1.000	0.375	0.975	0.250	Biso	1.000	Al
Al1	1.000	0.325	0.925	0.300	Biso	1.000	Al
Al1	1.000	0.325	0.975	0.325	Biso	1.000	Al
Al1	1.000	0.375	0.925	0.325	Biso	1.000	Al
Al1	1.000	0.375	0.975	0.300	Biso	1.000	Al
Al1	1.000	0.325	0.925	0.350	Biso	1.000	Al
Al1	1.000	0.325	0.975	0.375	Biso	1.000	Al
Al1	1.000	0.375	0.925	0.375	Biso	1.000	Al
Al1	1.000	0.375	0.975	0.350	Biso	1.000	Al
Al1	1.000	0.325	0.925	0.400	Biso	1.000	Al
Al1	1.000	0.325	0.975	0.425	Biso	1.000	Al
Al1	1.000	0.375	0.925	0.425	Biso	1.000	Al
Al1	1.000	0.375	0.975	0.400	Biso	1.000	Al
Al1	1.000	0.325	0.925	0.450	Biso	1.000	Al
Al1	1.000	0.325	0.975	0.475	Biso	1.000	Al
Al1	1.000	0.375	0.925	0.475	Biso	1.000	Al
Al1	1.000	0.375	0.975	0.450	Biso	1.000	Al
Al1	1.000	0.325	0.925	0.500	Biso	1.000	Al
Al1	1.000	0.325	0.975	0.525	Biso	1.000	Al
Al1	1.000	0.375	0.925	0.525	Biso	1.000	Al
Al1	1.000	0.375	0.975	0.500	Biso	1.000	Al
Al1	1.000	0.325	0.925	0.550	Biso	1.000	Al
Al1	1.000	0.325	0.975	0.575	Biso	1.000	Al
Al1	1.000	0.375	0.925	0.575	Biso	1.000	Al
Al1	1.000	0.375	0.975	0.550	Biso	1.000	Al
Al1	1.000	0.325	0.925	0.600	Biso	1.000	Al
Al1	1.000	0.325	0.975	0.625	Biso	1.000	Al
Al1	1.000	0.375	0.925	0.625	Biso	1.000	Al
Al1	1.000	0.375	0.975	0.600	Biso	1.000	Al
Al1	1.000	0.325	0.925	0.650	Biso	1.000	Al
Al1	1.000	0.325	0.975	0.675	Biso	1.000	Al
Al1	1.000	0.375	0.925	0.675	Biso	1.000	Al
Al1	1.000	0.375	0.975	0.650	Biso	1.000	Al
Al1	1.000	0.325	0.925	0.700	Biso	1.000	Al
Al1	1.000	0.325	0.975	0.725	Biso	1.000	Al
Al1	1.000	0.375	0.925	0.725	Biso	1.000	Al
Al1	1.000	0.375	0.975	0.700	Biso	1.000	Al
Al1	1.000	0.325	0.925	0.750	Biso	1.000	Al
Al1	1.000	0.325	0.975	0.775	Biso	1.000	Al
Al1	1.000	0.375	0.925	0.775	Biso	1.000	Al
Al1	1.000	0.375	0.975	0.750	Biso	1.000	Al
Al1	1.000	0.325	0.925	0.800	Biso	1.000	Al
Al1	1.000	0.325	0.975	0.825	Biso	1.000	Al
Al1	1.000	0.375	0.925	0.825	Biso	1.000	Al
Al1	1.000	0.375	0.975	0.800	Biso	1.000	Al
Al1	1.000	0.325	0.925	0.850	Biso	1.000	Al
Al1	1.000	0.325	0.975	0.875	Biso	1.000	Al
Al1	1.000	0.375	0.925	0.875	Biso	1.000	Al
Al1	1.000	0.375	0.975	0.850	Biso	1.000	Al
Al1	1.000	0.325	0.925	0.900	Biso	1.000	Al
Al1	1.000	0.325	0.975	0.925	Biso	1.000	Al
Al1	1.000	0.375	0.925	0.925	Biso	1.000	Al
Al1	1.000	0.375	0.975	0.900	Biso	1.000	Al
Al1	1.000	0.325	0.925	0.950	Biso	1.000	Al
Al1	1.000	0.325	0.975	0.975	Biso	1.000	Al
Al1	1.000	0.375	0.925	0.975	Biso	1.000	Al
Al1	1.000	0.375	0.975	0.950	Biso	1.000	Al
Al1	1.000	0.425	0.025	0.000	Biso	1.000	Al
Al1	1.000	0.425	0.075	0.025	Biso	1.000	Al
Al1	1.000	0.475	0.025	0.025	Biso	1.000	Al
Al1	1.000	0.475	0.075	0.000	Biso	1.000	Al
Al1	1.000	0.425	0.025	0.050	Biso	1.000	Al
Al1	1.000	0.425	0.075	0.075	Biso	1.000	Al
Al1	1.000	0.475	0.025	0.075	Biso	1.000	Al
Al1	1.000	0.475	0.075	0.050	Biso	1.000	Al
Al1	1.000	0.425	0.025	0.100	Biso	1.000	Al
Al1	1.000	0.425	0.075	0.125	Biso	1.000	Al
Al1	1.000	0.475	0.025	0.125	Biso	1.000	Al
Al1	1.000	0.475	0.075	0.100	Biso	1.000	Al
Al1	1.000	0.425	0.025	0.150	Biso	1.000	Al
Al1	1.000	0.425	0.075	0.175	Biso	1.000	Al
Al1	1.000	0.475	0.025	0.175	Biso	1.000	Al
Al1	1.000	0.475	0.075	0.150	Biso	1.000	Al
Al1	1.000	0.425	0.025	0.200	Biso	1.000	Al
Al1	1.000	0.425	0.075	0.225	Biso	1.000	Al
Al1	1.000	0.475	0.025	0.225	Biso	1.000	Al
Al1	1.000	0.475	0.075	0.200	Biso	1.000	Al
Al1	1.000	0.425	0.025	0.250	Biso	1.000	Al
Al1	1.000	0.425	0.075	0.275	Biso	1.000	Al
Al1	1.000	0.475	0.025	0.275	Biso	1.000	Al
Al1	1.000	0.475	0.075	0.250	Biso	1.000	Al
Al1	1.000	0.425	0.025	0.300	Biso	1.000	Al
Al1	1.000	0.425	0.075	0.325	Biso	1.000	Al
Al1	1.000	0.475	0.025	0.325	Biso	1.000	Al
Al1	1.000	0.475	0.075	0.300	Biso	1.000	Al
Al1	1.000	0.425	0.025	0.350	Biso	1.000	Al
Al1	1.000	0.425	0.075	0.375	Biso	1.000	Al
Al1	1.000	0.475	0.025	0.375	Biso	1.000	Al
Al1	1.000	0.475	0.075	0.350	Biso	1.000	Al
Al1	1.000	0.425	0.025	0.400	Biso	1.000	Al
Al1	1.000	0.425	0.075	0.425	Biso	1.000	Al
Al1	1.000	0.475	0.025	0.425	Biso	1.000	Al
Al1	1.000	0.475	0.075	0.400	Biso	1.000	Al
Al1	1.000	0.425	0.025	0.450	Biso	1.000	Al
Al1	1.000	0.425	0.075	0.475	Biso	1.000	Al
Al1	1.000	0.475	0.025	0.475	Biso	1.000	Al
Al1	1.000	0.475	0.075	0.450	Biso	1.000	Al
Al1	1.000	0.425	0.025	0.500	Biso	1.000	Al
Al1	1.000	0.425	0.075	0.525	Biso	1.000	Al
Al1	1.000	0.475	0.025	0.525	Biso	1.000	Al
Al1	1.000	0.475	0.075	0.500	Biso	1.000	Al
Al1	1.000	0.425	0.025	0.550	Biso	1.000	Al
Al1	1.000	0.425	0.075	0.575	Biso	1.000	Al
Al1	1.000	0.475	0.025	0.575	Biso	1.000	Al
Al1	1.000	0.475	0.075	0.550	Biso	1.000	Al
Al1	1.000	0.425	0.025	0.600	Biso	1.000	Al
Al1	1.000	0.425	0.075	0.625	Biso	1.000	Al
Al1	1.000	0.475	0.025	0.625	Biso	1.000	Al
Al1	1.000	0.475	0.075	0.600	Biso	1.000	Al
Al1	1.000	0.425	0.025	0.650	Biso	1.000	Al
Al1	1.000	0.425	0.075	0.675	Biso	1.000	Al
Al1	1.000	0.475	0.025	0.675	Biso	1.000	Al
Al1	1.000	0.475	0.075	0.650	Biso	1.000	Al
Al1	1.000	0.425	0.025	0.700	Biso	1.000	Al
Al1	1.000	0.425	0.075	0.725	Biso	1.000	Al
Al1	1.000	0.475	0.025	0.725	Biso	1.000	Al
Al1	1.000	0.475	0.075	0.700	Biso	1.000	Al
Al1	1.000	0.425	0.025	0.750	Biso	1.000	Al
Al1	1.000	0.425	0.075	0.775	Biso	1.000	Al
Al1	1.000	0.475	0.025	0.775	Biso	1.000	Al
Al1	1.000	0.475	0.075	0.750	Biso	1.000	Al
Al1	1.000	0.425	0.025	0.800	Biso	1.000	Al
Al1	1.000	0.425	0.075	0.825	Biso	1.000	Al
Al1	1.000	0.475	0.025	0.825	Biso	1.000	Al
Al1	1.000	0.475	0.075	0.800	Biso	1.000	Al
Al1	1.000	0.425	0.025	0.850	Biso	1.000	Al
Al1	1.000	0.425	0.075	0.875	Biso	1.000	Al
Al1	1.000	0.475	0.025	0.875	Biso	1.000	Al
Al1	1.000	0.475	0.075	0.850	Biso	1.000	Al
Al1	1.000	0.425	0.025	0.900	Biso	1.000	Al
Al1	1.000	0.425	0.075	0.925	Biso	1.000	Al
Al1	1.000	0.475	0.025	0.925	Biso	1.000	Al
Al1	1.000	0.475	0.075	0.900	Biso	1.000	Al
Al1	1.000	0.425	0.025	0.950	Biso	1.000	Al
Al1	1.000	0.425	0.075	0.975	Biso	1.000	Al
Al1	1.000	0.475	0.025	0.975	Biso	1.000	Al
Al1	1.000	0.475	0.075	0.950	Biso	1.000	Al
Al1	1.000	0.425	0.125	0.000	Biso	1.000	Al
Al1	1.000	0.425	0.175	0.025	Biso	1.000	Al
Al1	1.000	0.475	0.125	0.025	Biso	1.000	Al
Al1	1.000	0.475	0.175	0.000	Biso	1.000	Al
Al1	1.000	0.425	0.125	0.050	Biso	1.000	Al
Al1	1.000	0.425	0.175	0.075	Biso	1.000	Al
Al1	1.000	0.475	0.125	0.075	Biso	1.000	Al
Al1	1.000	0.475	0.175	0.050	Biso	1.000	Al
Al1	1.000	0.425	0.125	0.100	Biso	1.000	Al
Al1	1.000	0.425	0.175	0.125	Biso	1.000	Al
Al1	1.000	0.475	0.125	0.125	Biso	1.000	Al
Al1	1.000	0.475	0.175	0.100	Biso	1.000	Al
Al1	1.000	0.425	0.125	0.150	Biso	1.000	Al
Al1	1.000	0.425	0.175	0.175	Biso	1.000	Al
Al1	1.000	0.475	0.125	0.175	Biso	1.000	Al
Al1	1.000	0.475	0.175	0.150	Biso	1.000	Al
Al1	1.000	0.425	0.125	0.200	Biso	1.000	Al
Al1	1.000	0.425	0.175	0.225	Biso	1.000	Al
Al1	1.000	0.475	0.125	0.225	Biso	1.000	Al
Al1	1.000	0.475	0.175	0.200	Biso	1.000	Al
Al1	1.000	0.425	0.125	0.250	Biso	1.000	Al
Al1	1.000	0.425	0.175	0.275	Biso	1.000	Al
Al1	1.000	0.475	0.125	0.275	Biso	1.000	Al
Al1	1.000	0.475	0.175	0.250	Biso	1.000	Al
Al1	1.000	0.425	0.125	0.300	Biso	1.000	Al
Al1	1.000	0.425	0.175	0.325	Biso	1.000	Al
Al1	1.000	0.475	0.125	0.325	Biso	1.000	Al
Al1	1.000	0.475	0.175	0.300	Biso	1.000	Al
Al1	1.000	0.425	0.125	0.350	Biso	1.000	Al
Al1	1.000	0.425	0.175	0.375	Biso	1.000	Al
Al1	1.000	0.475	0.125	0.375	Biso	1.000	Al
Al1	1.000	0.475	0.175	0.350	Biso	1.000	Al
Al1	1.000	0.425	0.125	0.400	Biso	1.000	Al
Al1	1.000	0.425	0.175	0.425	Biso	1.000	Al
Al1	1.000	0.475	0.125	0.425	Biso	1.000	Al
Al1	1.000	0.475	0.175	0.400	Biso	1.000	Al
Al1	1.000	0.425	0.125	0.450	Biso	1.000	Al
Al1	1.000	0.425	0.175	0.475	Biso	1.000	Al
Al1	1.000	0.475	0.125	0.475	Biso	1.000	Al
Al1	1.000	0.475	0.175	0.450	Biso	1.000	Al
Al1	1.000	0.425	0.125	0.500	Biso	1.000	Al
Al1	1.000	0.425	0.175	0.525	Biso	1.000	Al
Al1	1.000	0.475	0.125	0.525	Biso	1.000	Al
Al1	1.000	0.475	0.175	0.500	Biso	1.000	Al
Al1	1.000	0.425	0.125	0.550	Biso	1.000	Al
Al1	1.000	0.425	0.175	0.575	Biso	1.000	Al
Al1	1.000	0.475	0.125	0.575	Biso	1.000	Al
Al1	1.000	0.475	0.175	0.550	Biso	1.000	Al
Al1	1.000	0.425	0.125	0.600	Biso	1.000	Al
Al1	1.000	0.425	0.175	0.625	Biso	1.000	Al
Al1	1.000	0.475	0.125	0.625	Biso	1.000	Al
Al1	1.000	0.475	0.175	0.600	Biso	1.000	Al
Al1	1.000	0.425	0.125	0.650	Biso	1.000	Al
Al1	1.000	0.425	0.175	0.675	Biso	1.000	Al
Al1	1.000	0.475	0.125	0.675	Biso	1.000	Al
Al1	1.000	0.475	0.175	0.650	Biso	1.000	Al
Al1	1.000	0.425	0.125	0.700	Biso	1.000	Al
Al1	1.000	0.425	0.175	0.725	Biso	1.000	Al
Al1	1.000	0.475	0.125	0.725	Biso	1.000	Al
Al1	1.000	0.475	0.175	0.700	Biso	1.000	Al
Al1	1.000	0.425	0.125	0.750	Biso	1.000	Al
Al1	1.000	0.425	0.175	0.775	Biso	1.000	Al
Al1	1.000	0.475	0.125	0.775	Biso	1.000	Al
Al1	1.000	0.475	0.175	0.750	Biso	1.000	Al
Al1	1.000	0.425	0.125	0.800	Biso	1.000	Al
Al1	1.000	0.425	0.175	0.825	Biso	1.000	Al
Al1	1.000	0.475	0.125	0.825	Biso	1.000	Al
Al1	1.000	0.475	0.175	0.800	Biso	1.000	Al
Al1	1.000	0.425	0.125	0.850	Biso	1.000	Al
Al1	1.000	0.425	0.175	0.875	Biso	1.000	Al
Al1	1.000	0.475	0.125	0.875	Biso	1.000	Al
Al1	1.000	0.475	0.175	0.850	Biso	1.000	Al
Al1	1.000	0.425	0.125	0.900	Biso	1.000	Al
Al1	1.000	0.425	0.175	0.925	Biso	1.000	Al
Al1	1.000	0.475	0.125	0.925	Biso	1.000	Al
Al1	1.000	0.475	0.175	0.900	Biso	1.000	Al
Al1	1.000	0.425	0.125	0.950	Biso	1.000	Al
Al1	1.000	0.425	0.175	0.975	Biso	1.000	Al
Al1	1.000	0.475	0.125	0.975	Biso	1.000	Al
Al1	1.000	0.475	0.175	0.950	Biso	1.000	Al
Al1	1.000	0.425	0.225	0.000	Biso	1.000	Al
Al1	1.000	0.425	0.275	0.025	Biso	1.000	Al
Al1	1.000	0.475	0.225	0.025	Biso	1.000	Al
Al1	1.000	0.475	0.275	0.000	Biso	1.000	Al
Al1	1.000	0.425	0.225	0.050	Biso	1.000	Al
Al1	1.000	0.425	0.275	0.075	Biso	1.000	Al
Al1	1.000	0.475	0.225	0.075	Biso	1.000	Al
Al1	1.000	0.475	0.275	0.050	Biso	1.000	Al
Al1	1.000	0.425	0.225	0.100	Biso	1.000	Al
Al1	1.000	0.425	0.275	0.125	Biso	1.000	Al
Al1	1.000	0.475	0.225	0.125	Biso	1.000	Al
Al1	1.000	0.475	0.275	0.100	Biso	1.000	Al
Al1	1.000	0.425	0.225	0.150	Biso	1.000	Al
Al1	1.000	0.425	0.275	0.175	Biso	1.000	Al
Al1	1.000	0.475	0.225	0.175	Biso	1.000	Al
Al1	1.000	0.475	0.275	0.150	Biso	1.000	Al
Al1	1.000	0.425	0.225	0.200	Biso	1.000	Al
Al1	1.000	0.425	0.275	0.225	Biso	1.000	Al
Al1	1.000	0.475	0.225	0.225	Biso	1.000	Al
Al1	1.000	0.475	0.275	0.200	Biso	1.000	Al
Al1	1.000	0.425	0.225	0.250	Biso	1.000	Al
Al1	1.000	0.425	0.275	0.275	Biso	1.000	Al
Al1	1.000	0.475	0.225	0.275	Biso	1.000	Al
Al1	1.000	0.475	0.275	0.250	Biso	1.000	Al
Al1	1.000	0.425	0.225	0.300	Biso	1.000	Al
Al1	1.000	0.425	0.275	0.325	Biso	1.000	Al
Al1	1.000	0.475	0.225	0.325	Biso	1.000	Al
Al1	1.000	0.475	0.275	0.300	Biso	1.000	Al
Al1	1.000	0.425	0.225	0.350	Biso	1.000	Al
Al1	1.000	0.425	0.275	0.375	Biso	1.000	Al
Al1	1.000	0.475	0.225	0.375	Biso	1.000	Al
Al1	1.000	0.475	0.275	0.350	Biso	1.000	Al
Al1	1.000	0.425	0.225	0.400	Biso	1.000	Al
Al1	1.000	0.425	0.275	0.425	Biso	1.000	Al
Al1	1.000	0.475	0.225	0.425	Biso	1.000	Al
Al1	1.000	0.475	0.275	0.400	Biso	1.000	Al
Al1	1.000	0.425	0.225	0.450	Biso	1.000	Al
Al1	1.000	0.425	0.275	0.475	Biso	1.000	Al
Al1	1.000	0.475	0.225	0.475	Biso	1.000	Al
Al1	1.000	0.475	0.275	0.450	Biso	1.000	Al
Al1	1.000	0.425	0.225	0.500	Biso	1.000	Al
Al1	1.000	0.425	0.275	0.525	Biso	1.000	Al
Al1	1.000	0.475	0.225	0.525	Biso	1.000	Al
Al1	1.000	0.475	0.275	0.500	Biso	1.000	Al
Al1	1.000	0.425	0.225	0.550	Biso	1.000	Al
Al1	1.000	0.425	0.275	0.575	Biso	1.000	Al
Al1	1.000	0.475	0.225	0.575	Biso	1.000	Al
Al1	1.000	0.475	0.275	0.550	Biso	1.000	Al
Al1	1.000	0.425	0.225	0.600	Biso	1.000	Al
Al1	1.000	0.425	0.275	0.625	Biso	1.000	Al
Al1	1.000	0.475	0.225	0.625	Biso	1.000	Al
Al1	1.000	0.475	0.275	0.600	Biso	1.000	Al
Al1	1.000	0.425	0.225	0.650	Biso	1.000	Al
Al1	1.000	0.425	0.275	0.675	Biso	1.000	Al
Al1	1.000	0.475	0.225	0.675	Biso	1.000	Al
Al1	1.000	0.475	0.275	0.650	Biso	1.000	Al
Al1	1.000	0.425	0.225	0.700	Biso	1.000	Al
Al1	1.000	0.425	0.275	0.725	Biso	1.000	Al
Al1	1.000	0.475	0.225	0.725	Biso	1.000	Al
Al1	1.000	0.475	0.275	0.700	Biso	1.000	Al
Al1	1.000	0.425	0.225	0.750	Biso	1.000	Al
Al1	1.000	0.425	0.275	0.775	Biso	1.000	Al
Al1	1.000	0.475	0.225	0.775	Biso	1.000	Al
Al1	1.000	0.475	0.275	0.750	Biso	1.000	Al
Al1	1.000	0.425	0.225	0.800	Biso	1.000	Al
Al1	1.000	0.425	0.275	0.825	Biso	1.000	Al
Al1	1.000	0.475	0.225	0.825	Biso	1.000	Al
Al1	1.000	0.475	0.275	0.800	Biso	1.000	Al
Al1	1.000	0.425	0.225	0.850	Biso	1.000	Al
Al1	1.000	0.425	0.275	0.875	Biso	1.000	Al
Al1	1.000	0.475	0.225	0.875	Biso	1.000	Al
Al1	1.000	0.475	0.275	0.850	Biso	1.000	Al
Al1	1.000	0.425	0.225	0.900	Biso	1.000	Al
Al1	1.000	0.425	0.275	0.925	Biso	1.000	Al
Al1	1.000	0.475	0.225	0.925	Biso	1.000	Al
Al1	1.000	0.475	0.275	0.900	Biso	1.000	Al
Al1	1.000	0.425	0.225	0.950	Biso	1.000	Al
Al1	1.000	0.425	0.275	0.975	Biso	1.000	Al
Al1	1.000	0.475	0.225	0.975	Biso	1.000	Al
Al1	1.000	0.475	0.275	0.950	Biso	1.000	Al
Al1	1.000	0.425	0.325	0.000	Biso	1.000	Al
Al1	1.000	0.425	0.375	0.025	Biso	1.000	Al
Al1	1.000	0.475	0.325	0.025	Biso	1.000	Al
Al1	1.000	0.475	0.375	0.000	Biso	1.000	Al
Al1	1.000	0.425	0.325	0.050	Biso	1.000	Al
Al1	1.000	0.425	0.375	0.075	Biso	1.000	Al
Al1	1.000	0.475	0.325	0.075	Biso	1.000	Al
Al1	1.000	0.475	0.375	0.050	Biso	1.000	Al
Al1	1.000	0.425	0.325	0.100	Biso	1.000	Al
Al1	1.000	0.425	0.375	0.125	Biso	1.000	Al
Al1	1.000	0.475	0.325	0.125	Biso	1.000	Al
Al1	1.000	0.475	0.375	0.100	Biso	1.000	Al
Al1	1.000	0.425	0.325	0.150	Biso	1.000	Al
Al1	1.000	0.425	0.375	0.175	Biso	1.000	Al
Al1	1.000	0.475	0.325	0.175	Biso	1.000	Al
Al1	1.000	0.475	0.375	0.150	Biso	1.000	Al
Al1	1.000	0.425	0.325	0.200	Biso	1.000	Al
Al1	1.000	0.425	0.375	0.225	Biso	1.000	Al
Al1	1.000	0.475	0.325	0.225	Biso	1.000	Al
Al1	1.000	0.475	0.375	0.200	Biso	1.000	Al
Al1	1.000	0.425	0.325	0.250	Biso	1.000	Al
Al1	1.000	0.425	0.375	0.275	Biso	1.000	Al
Al1	1.000	0.475	0.325	0.275	Biso	1.000	Al
Al1	1.000	0.475	0.375	0.250	Biso	1.000	Al
Al1	1.000	0.425	0.325	0.300	Biso	1.000	Al
Al1	1.000	0.425	0.375	0.325	Biso	1.000	Al
Al1	1.000	0.475	0.325	0.325	Biso	1.000	Al
Al1	1.000	0.475	0.375	0.300	Biso	1.000	Al
Al1	1.000	0.425	0.325	0.350	Biso	1.000	Al
Al1	1.000	0.425	0.375	0.375	Biso	1.000	Al
Al1	1.000	0.475	0.325	0.375	Biso	1.000	Al
Al1	1.000	0.475	0.375	0.350	Biso	1.000	Al
Al1	1.000	0.425	0.325	0.400	Biso	1.000	Al
Al1	1.000	0.425	0.375	0.425	Biso	1.000	Al
Al1	1.000	0.475	0.325	0.425	Biso	1.000	Al
Al1	1.000	0.475	0.375	0.400	Biso	1.000	Al
Al1	1.000	0.425	0.325	0.450	Biso	1.000	Al
Al1	1.000	0.425	0.375	0.475	Biso	1.000	Al
Al1	1.000	0.475	0.325	0.475	Biso	1.000	Al
Al1	1.000	0.475	0.375	0.450	Biso	1.000	Al
Al1	1.000	0.425	0.325	0.500	Biso	1.000	Al
Al1	1.000	0.425	0.375	0.525	Biso	1.000	Al
Al1	1.000	0.475	0.325	0.525	Biso	1.000	Al
Al1	1.000	0.475	0.375	0.500	Biso	1.000	Al
Al1	1.000	0.425	0.325	0.550	Biso	1.000	Al
Al1	1.000	0.425	0.375	0.575	Biso	1.000	Al
Al1	1.000	0.475	0.325	0.575	Biso	1.000	Al
Al1	1.000	0.475	0.375	0.550	Biso	1.000	Al
Al1	1.000	0.425	0.325	0.600	Biso	1.000	Al
Al1	1.000	0.425	0.375	0.625	Biso	1.000	Al
Al1	1.000	0.475	0.325	0.625	Biso	1.000	Al
Al1	1.000	0.475	0.375	0.600	Biso	1.000	Al
Al1	1.000	0.425	0.325	0.650	Biso	1.000	Al
Al1	1.000	0.425	0.375	0.675	Biso	1.000	Al
Al1	1.000	0.475	0.325	0.675	Biso	1.000	Al
Al1	1.000	0.475	0.375	0.650	Biso	1.000	Al
Al1	1.000	0.425	0.325	0.700	Biso	1.000	Al
Al1	1.000	0.425	0.375	0.725	Biso	1.000	Al
Al1	1.000	0.475	0.325	0.725	Biso	1.000	Al
Al1	1.000	0.475	0.375	0.700	Biso	1.000	Al
Al1	1.000	0.425	0.325	0.750	Biso	1.000	Al
Al1	1.000	0.425	0.375	0.775	Biso	1.000	Al
Al1	1.000	0.475	0.325	0.775	Biso	1.000	Al
Al1	1.000	0.475	0.375	0.750	Biso	1.000	Al
Al1	1.000	0.425	0.325	0.800	Biso	1.000	Al
Al1	1.000	0.425	0.375	0.825	Biso	1.000	Al
Al1	1.000	0.475	0.325	0.825	Biso	1.000	Al
Al1	1.000	0.475	0.375	0.800	Biso	1.000	Al
Al1	1.000	0.425	0.325	0.850	Biso	1.000	Al
Al1	1.000	0.425	0.375	0.875	Biso	1.000	Al
Al1	1.000	0.475	0.325	0.875	Biso	1.000	Al
Al1	1.000	0.475	0.375	0.850	Biso	1.000	Al
Al1	1.000	0.425	0.325	0.900	Biso	1.000	Al
Al1	1.000	0.425	0.375	0.925	Biso	1.000	Al
Al1	1.000	0.475	0.325	0.925	Biso	1.000	Al
Al1	1.000	0.475	0.375	0.900	Biso	1.000	Al
Al1	1.000	0.425	0.325	0.950	Biso	1.000	Al
Al1	1.000	0.425	0.375	0.975	Biso	1.000	Al
Al1	1.000	0.475	0.325	0.975	Biso	1.000	Al
Al1	1.000	0.475	0.375	0.950	Biso	1.000	Al
Al1	1.000	0.425	0.425	0.000	Biso	1.000	Al
Al1	1.000	0.425	0.475	0.025	Biso	1.000	Al
Al1	1.000	0.475	0.425	0.025	Biso	1.000	Al
Al1	1.000	0.475	0.475	0.000	Biso	1.000	Al
Al1	1.000	0.425	0.425	0.050	Biso	1.000	Al
Al1	1.000	0.425	0.475	0.075	Biso	1.000	Al
Al1	1.000	0.475	0.425	0.075	Biso	1.000	Al
Al1	1.000	0.475	0.475	0.050	Biso	1.000	Al
Al1	1.000	0.425	0.425	0.100	Biso	1.000	Al
Al1	1.000	0.425	0.475	0.125	Biso	1.000	Al
Al1	1.000	0.475	0.425	0.125	Biso	1.000	Al
Al1	1.000	0.475	0.475	0.100	Biso	1.000	Al
Al1	1.000	0.425	0.425	0.150	Biso	1.000	Al
Al1	1.000	0.425	0.475	0.175	Biso	1.000	Al
Al1	1.000	0.475	0.425	0.175	Biso	1.000	Al
Al1	1.000	0.475	0.475	0.150	Biso	1.000	Al
Al1	1.000	0.425	0.425	0.200	Biso	1.000	Al
Al1	1.000	0.425	0.475	0.225	Biso	1.000	Al
Al1	1.000	0.475	0.425	0.225	Biso	1.000	Al
Al1	1.000	0.475	0.475	0.200	Biso	1.000	Al
Al1	1.000	0.425	0.425	0.250	Biso	1.000	Al
Al1	1.000	0.425	0.475	0.275	Biso	1.000	Al
Al1	1.000	0.475	0.425	0.275	Biso	1.000	Al
Al1	1.000	0.475	0.475	0.250	Biso	1.000	Al
Al1	1.000	0.425	0.425	0.300	Biso	1.000	Al
Al1	1.000	0.425	0.475	0.325	Biso	1.000	Al
Al1	1.000	0.475	0.425	0.325	Biso	1.000	Al
Al1	1.000	0.475	0.475	0.300	Biso	1.000	Al
Al1	1.000	0.425	0.425	0.350	Biso	1.000	Al
Al1	1.000	0.425	0.475	0.375	Biso	1.000	Al
Al1	1.000	0.475	0.425	0.375	Biso	1.000	Al
Al1	1.000	0.475	0.475	0.350	Biso	1.000	Al
Al1	1.000	0.425	0.425	0.400	Biso	1.000	Al
Al1	1.000	0.425	0.475	0.425	Biso	1.000	Al
Al1	1.000	0.475	0.425	0.425	Biso	1.000	Al
Al1	1.000	0.475	0.475	0.400	Biso	1.000	Al
Al1	1.000	0.425	0.425	0.450	Biso	1.000	Al
Al1	1.000	0.425	0.475	0.475	Biso	1.000	Al
Al1	1.000	0.475	0.425	0.475	Biso	1.000	Al
Al1	1.000	0.475	0.475	0.450	Biso	1.000	Al
Al1	1.000	0.425	0.425	0.500	Biso	1.000	Al
Al1	1.000	0.425	0.475	0.525	Biso	1.000	Al
Al1	1.000	0.475	0.425	0.525	Biso	1.000	Al
Al1	1.000	0.475	0.475	0.500	Biso	1.000	Al
Al1	1.000	0.425	0.425	0.550	Biso	1.000	Al
Al1	1.000	0.425	0.475	0.575	Biso	1.000	Al
Al1	1.000	0.475	0.425	0.575	Biso	1.000	Al
Al1	1.000	0.475	0.475	0.550	Biso	1.000	Al
Al1	1.000	0.425	0.425	0.600	Biso	1.000	Al
Al1	1.000	0.425	0.475	0.625	Biso	1.000	Al
Al1	1.000	0.475	0.425	0.625	Biso	1.000	Al
Al1	1.000	0.475	0.475	0.600	Biso	1.000	Al
Al1	1.000	0.425	0.425	0.650	Biso	1.000	Al
Al1	1.000	0.425	0.475	0.675	Biso	1.000	Al
Al1	1.000	0.475	0.425	0.675	Biso	1.000	Al
Al1	1.000	0.475	0.475	0.650	Biso	1.000	Al
Al1	1.000	0.425	0.425	0.700	Biso	1.000	Al
Al1	1.000	0.425	0.475	0.725	Biso	1.000	Al
Al1	1.000	0.475	0.425	0.725	Biso	1.000	Al
Al1	1.000	0.475	0.475	0.700	Biso	1.000	Al
Al1	1.000	0.425	0.425	0.750	Biso	1.000	Al
Al1	1.000	0.425	0.475	0.775	Biso	1.000	Al
Al1	1.000	0.475	0.425	0.775	Biso	1.000	Al
Al1	1.000	0.475	0.475	0.750	Biso	1.000	Al
Al1	1.000	0.425	0.425	0.800	Biso	1.000	Al
Al1	1.000	0.425	0.475	0.825	Biso	1.000	Al
Al1	1.000	0.475	0.425	0.825	Biso	1.000	Al
Al1	1.000	0.475	0.475	0.800	Biso	1.000	Al
Al1	1.000	0.425	0.425	0.850	Biso	1.000	Al
Al1	1.000	0.425	0.475	0.875	Biso	1.000	Al
Al1	1.000	0.475	0.425	0.875	Biso	1.000	Al
Al1	1.000	0.475	0.475	0.850	Biso	1.000	Al
Al1	1.000	0.425	0.425	0.900	Biso	1.000	Al
Al1	1.000	0.425	0.475	0.925	Biso	1.000	Al
Al1	1.000	0.475	0.425	0.925	Biso	1.000	Al
Al1	1.000	0.475	0.475	0.900	Biso	1.000	Al
Al1	1.000	0.425	0.425	0.950	Biso	1.000	Al
Al1	1.000	0.425	0.475	0.975	Biso	1.000	Al
Al1	1.000	0.475	0.425	0.975	Biso	1.000	Al
Al1	1.000	0.475	0.475	0.950	Biso	1.000	Al
Al1	1.000	0.425	0.525	0.000	Biso	1.000	Al
Al1	1.000	0.425	0.575	0.025	Biso	1.000	Al
Al1	1.000	0.475	0.525	0.025	Biso	1.000	Al
Al1	1.000	0.475	0.575	0.000	Biso	1.000	Al
Al1	1.000	0.425	0.525	0.050	Biso	1.000	Al
Al1	1.000	0.425	0.575	0.075	Biso	1.000	Al
Al1	1.000	0.475	0.525	0.075	Biso	1.000	Al
Al1	1.000	0.475	0.575	0.050	Biso	1.000	Al
Al1	1.000	0.425	0.525	0.100	Biso	1.000	Al
Al1	1.000	0.425	0.575	0.125	Biso	1.000	Al
Al1	1.000	0.475	0.525	0.125	Biso	1.000	Al
Al1	1.000	0.475	0.575	0.100	Biso	1.000	Al
Al1	1.000	0.425	0.525	0.150	Biso	1.000	Al
Al1	1.000	0.425	0.575	0.175	Biso	1.000	Al
Al1	1.000	0.475	0.525	0.175	Biso	1.000	Al
Al1	1.000	0.475	0.575	0.150	Biso	1.000	Al
Al1	1.000	0.425	0.525	0.200	Biso	1.000	Al
Al1	1.000	0.425	0.575	0.225	Biso	1.000	Al
Al1	1.000	0.475	0.525	0.225	Biso	1.000	Al
Al1	1.000	0.475	0.575	0.200	Biso	1.000	Al
Al1	1.000	0.425	0.525	0.250	Biso	1.000	Al
Al1	1.000	0.425	0.575	0.275	Biso	1.000	Al
Al1	1.000	0.475	0.525	0.275	Biso	1.000	Al
Al1	1.000	0.475	0.575	0.250	Biso	1.000	Al
Al1	1.000	0.425	0.525	0.300	Biso	1.000	Al
Al1	1.000	0.425	0.575	0.325	Biso	1.000	Al
Al1	1.000	0.475	0.525	0.325	Biso	1.000	Al
Al1	1.000	0.475	0.575	0.300	Biso	1.000	Al
Al1	1.000	0.425	0.525	0.350	Biso	1.000	Al
Al1	1.000	0.425	0.575	0.375	Biso	1.000	Al
Al1	1.000	0.475	0.525	0.375	Biso	1.000	Al
Al1	1.000	0.475	0.575	0.350	Biso	1.000	Al
Al1	1.000	0.425	0.525	0.400	Biso	1.000	Al
Al1	1.000	0.425	0.575	0.425	Biso	1.000	Al
Al1	1.000	0.475	0.525	0.425	Biso	1.000	Al
Al1	1.000	0.475	0.575	0.400	Biso	1.000	Al
Al1	1.000	0.425	0.525	0.450	Biso	1.000	Al
Al1	1.000	0.425	0.575	0.475	Biso	1.000	Al
Al1	1.000	0.475	0.525	0.475	Biso	1.000	Al
Al1	1.000	0.475	0.575	0.450	Biso	1.000	Al
Al1	1.000	0.425	0.525	0.500	Biso	1.000	Al
Al1	1.000	0.425	0.575	0.525	Biso	1.000	Al
Al1	1.000	0.475	0.525	0.525	Biso	1.000	Al
Al1	1.000	0.475	0.575	0.500	Biso	1.000	Al
Al1	1.000	0.425	0.525	0.550	Biso	1.000	Al
Al1	1.000	0.425	0.575	0.575	Biso	1.000	Al
Al1	1.000	0.475	0.525	0.575	Biso	1.000	Al
Al1	1.000	0.475	0.575	0.550	Biso	1.000	Al
Al1	1.000	0.425	0.525	0.600	Biso	1.000	Al
Al1	1.000	0.425	0.575	0.625	Biso	1.000	Al
Al1	1.000	0.475	0.525	0.625	Biso	1.000	Al
Al1	1.000	0.475	0.575	0.600	Biso	1.000	Al
Al1	1.000	0.425	0.525	0.650	Biso	1.000	Al
Al1	1.000	0.425	0.575	0.675	Biso	1.000	Al
Al1	1.000	0.475	0.525	0.675	Biso	1.000	Al
Al1	1.000	0.475	0.575	0.650	Biso	1.000	Al
Al1	1.000	0.425	0.525	0.700	Biso	1.000	Al
Al1	1.000	0.425	0.575	0.725	Biso	1.000	Al
Al1	1.000	0.475	0.525	0.725	Biso	1.000	Al
Al1	1.000	0.475	0.575	0.700	Biso	1.000	Al
Al1	1.000	0.425	0.525	0.750	Biso	1.000	Al
Al1	1.000	0.425	0.575	0.775	Biso	1.000	Al
Al1	1.000	0.475	0.525	0.775	Biso	1.000	Al
Al1	1.000	0.475	0.575	0.750	Biso	1.000	Al
Al1	1.000	0.425	0.525	0.800	Biso	1.000	Al
Al1	1.000	0.425	0.575	0.825	Biso	1.000	Al
Al1	1.000	0.475	0.525	0.825	Biso	1.000	Al
Al1	1.000	0.475	0.575	0.800	Biso	1.000	Al
Al1	1.000	0.425	0.525	0.850	Biso	1.000	Al
Al1	1.000	0.425	0.575	0.875	Biso	1.000	Al
Al1	1.000	0.475	0.525	0.875	Biso	1.000	Al
Al1	1.000	0.475	0.575	0.850	Biso	1.000	Al
Al1	1.000	0.425	0.525	0.900	Biso	1.000	Al
Al1	1.000	0.425	0.575	0.925	Biso	1.000	Al
Al1	1.000	0.475	0.525	0.925	Biso	1.000	Al
Al1	1.000	0.475	0.575	0.900	Biso	1.000	Al
Al1	1.000	0.425	0.525	0.950	Biso	1.000	Al
Al1	1.000	0.425	0.575	0.975	Biso	1.000	Al
Al1	1.000	0.475	0.525	0.975	Biso	1.000	Al
Al1	1.000	0.475	0.575	0.950	Biso	1.000	Al
Al1	1.000	0.425	0.625	0.000	Biso	1.000	Al
Al1	1.000	0.425	0.675	0.025	Biso	1.000	Al
Al1	1.000	0.475	0.625	0.025	Biso	1.000	Al
Al1	1.000	0.475	0.675	0.000	Biso	1.000	Al
Al1	1.000	0.425	0.625	0.050	Biso	1.000	Al
Al1	1.000	0.425	0.675	0.075	Biso	1.000	Al
Al1	1.000	0.475	0.625	0.075	Biso	1.000	Al
Al1	1.000	0.475	0.675	0.050	Biso	1.000	Al
Al1	1.000	0.425	0.625	0.100	Biso	1.000	Al
Al1	1.000	0.425	0.675	0.125	Biso	1.000	Al
Al1	1.000	0.475	0.625	0.125	Biso	1.000	Al
Al1	1.000	0.475	0.675	0.100	Biso	1.000	Al
Al1	1.000	0.425	0.625	0.150	Biso	1.000	Al
Al1	1.000	0.425	0.675	0.175	Biso	1.000	Al
Al1	1.000	0.475	0.625	0.175	Biso	1.000	Al
Al1	1.000	0.475	0.675	0.150	Biso	1.000	Al
Al1	1.000	0.425	0.625	0.200	Biso	1.000	Al
Al1	1.000	0.425	0.675	0.225	Biso	1.000	Al
Al1	1.000	0.475	0.625	0.225	Biso	1.000	Al
Al1	1.000	0.475	0.675	0.200	Biso	1.000	Al
Al1	1.000	0.425	0.625	0.250	Biso	1.000	Al
Al1	1.000	0.425	0.675	0.275	Biso	1.000	Al
Al1	1.000	0.475	0.625	0.275	Biso	1.000	Al
Al1	1.000	0.475	0.675	0.250	Biso	1.000	Al
Al1	1.000	0.425	0.625	0.300	Biso	1.000	Al
Al1	1.000	0.425	0.675	0.325	Biso	1.000	Al
Al1	1.000	0.475	0.625	0.325	Biso	1.000	Al
Al1	1.000	0.475	0.675	0.300	Biso	1.000	Al
Al1	1.000	0.425	0.625	0.350	Biso	1.000	Al
Al1	1.000	0.425	0.675	0.375	Biso	1.000	Al
Al1	1.000	0.475	0.625	0.375	Biso	1.000	Al
Al1	1.000	0.475	0.675	0.350	Biso	1.000	Al
Al1	1.000	0.425	0.625	0.400	Biso	1.000	Al
Al1	1.000	0.425	0.675	0.425	Biso	1.000	Al
Al1	1.000	0.475	0.625	0.425	Biso	1.000	Al
Al1	1.000	0.475	0.675	0.400	Biso	1.000	Al
Al1	1.000	0.425	0.625	0.450	Biso	1.000	Al
Al1	1.000	0.425	0.675	0.475	Biso	1.000	Al
Al1	1.000	0.475	0.625	0.475	Biso	1.000	Al
Al1	1.000	0.475	0.675	0.450	Biso	1.000	Al
Al1	1.000	0.425	0.625	0.500	Biso	1.000	Al
Al1	1.000	0.425	0.675	0.525	Biso	1.000	Al
Al1	1.000	0.475	0.625	0.525	Biso	1.000	Al
Al1	1.000	0.475	0.675	0.500	Biso	1.000	Al
Al1	1.000	0.425	0.625	0.550	Biso	1.000	Al
Al1	1.000	0.425	0.675	0.575	Biso	1.000	Al
Al1	1.000	0.475	0.625	0.575	Biso	1.000	Al
Al1	1.000	0.475	0.675	0.550	Biso	1.000	Al
Al1	1.000	0.425	0.625	0.600	Biso	1.000	Al
Al1	1.000	0.425	0.675	0.625	Biso	1.000	Al
Al1	1.000	0.475	0.625	0.625	Biso	1.000	Al
Al1	1.000	0.475	0.675	0.600	Biso	1.000	Al
Al1	1.000	0.425	0.625	0.650	Biso	1.000	Al
Al1	1.000	0.425	0.675	0.675	Biso	1.000	Al
Al1	1.000	0.475	0.625	0.675	Biso	1.000	Al
Al1	1.000	0.475	0.675	0.650	Biso	1.000	Al
Al1	1.000	0.425	0.625	0.700	Biso	1.000	Al
Al1	1.000	0.425	0.675	0.725	Biso	1.000	Al
Al1	1.000	0.475	0.625	0.725	Biso	1.000	Al
Al1	1.000	0.475	0.675	0.700	Biso	1.000	Al
Al1	1.000	0.425	0.625	0.750	Biso	1.000	Al
Al1	1.000	0.425	0.675	0.775	Biso	1.000	Al
Al1	1.000	0.475	0.625	0.775	Biso	1.000	Al
Al1	1.000	0.475	0.675	0.750	Biso	1.000	Al
Al1	1.000	0.425	0.625	0.800	Biso	1.000	Al
Al1	1.000	0.425	0.675	0.825	Biso	1.000	Al
Al1	1.000	0.475	0.625	0.825	Biso	1.000	Al
Al1	1.000	0.475	0.675	0.800	Biso	1.000	Al
Al1	1.000	0.425	0.625	0.850	Biso	1.000	Al
Al1	1.000	0.425	0.675	0.875	Biso	1.000	Al
Al1	1.000	0.475	0.625	0.875	Biso	1.000	Al
Al1	1.000	0.475	0.675	0.850	Biso	1.000	Al
Al1	1.000	0.425	0.625	0.900	Biso	1.000	Al
Al1	1.000	0.425	0.675	0.925	Biso	1.000	Al
Al1	1.000	0.475	0.625	0.925	Biso	1.000	Al
Al1	1.000	0.475	0.675	0.900	Biso	1.000	Al
Al1	1.000	0.425	0.625	0.950	Biso	1.000	Al
Al1	1.000	0.425	0.675	0.975	Biso	1.000	Al
Al1	1.000	0.475	0.625	0.975	Biso	1.000	Al
Al1	1.000	0.475	0.675	0.950	Biso	1.000	Al
Al1	1.000	0.425	0.725	0.000	Biso	1.000	Al
Al1	1.000	0.425	0.775	0.025	Biso	1.000	Al
Al1	1.000	0.475	0.725	0.025	Biso	1.000	Al
Al1	1.000	0.475	0.775	0.000	Biso	1.000	Al
Al1	1.000	0.425	0.725	0.050	Biso	1.000	Al
Al1	1.000	0.425	0.775	0.075	Biso	1.000	Al
Al1	1.000	0.475	0.725	0.075	Biso	1.000	Al
Al1	1.000	0.475	0.775	0.050	Biso	1.000	Al
Al1	1.000	0.425	0.725	0.100	Biso	1.000	Al
Al1	1.000	0.425	0.775	0.125	Biso	1.000	Al
Al1	1.000	0.475	0.725	0.125	Biso	1.000	Al
Al1	1.000	0.475	0.775	0.100	Biso	1.000	Al
Al1	1.000	0.425	0.725	0.150	Biso	1.000	Al
Al1	1.000	0.425	0.775	0.175	Biso	1.000	Al
Al1	1.000	0.475	0.725	0.175	Biso	1.000	Al
Al1	1.000	0.475	0.775	0.150	Biso	1.000	Al
Al1	1.000	0.425	0.725	0.200	Biso	1.000	Al
Al1	1.000	0.425	0.775	0.225	Biso	1.000	Al
Al1	1.000	0.475	0.725	0.225	Biso	1.000	Al
Al1	1.000	0.475	0.775	0.200	Biso	1.000	Al
Al1	1.000	0.425	0.725	0.250	Biso	1.000	Al
Al1	1.000	0.425	0.775	0.275	Biso	1.000	Al
Al1	1.000	0.475	0.725	0.275	Biso	1.000	Al
Al1	1.000	0.475	0.775	0.250	Biso	1.000	Al
Al1	1.000	0.425	0.725	0.300	Biso	1.000	Al
Al1	1.000	0.425	0.775	0.325	Biso	1.000	Al
Al1	1.000	0.475	0.725	0.325	Biso	1.000	Al
Al1	1.000	0.475	0.775	0.300	Biso	1.000	Al
Al1	1.000	0.425	0.725	0.350	Biso	1.000	Al
Al1	1.000	0.425	0.775	0.375	Biso	1.000	Al
Al1	1.000	0.475	0.725	0.375	Biso	1.000	Al
Al1	1.000	0.475	0.775	0.350	Biso	1.000	Al
Al1	1.000	0.425	0.725	0.400	Biso	1.000	Al
Al1	1.000	0.425	0.775	0.425	Biso	1.000	Al
Al1	1.000	0.475	0.725	0.425	Biso	1.000	Al
Al1	1.000	0.475	0.775	0.400	Biso	1.000	Al
Al1	1.000	0.425	0.725	0.450	Biso	1.000	Al
Al1	1.000	0.425	0.775	0.475	Biso	1.000	Al
Al1	1.000	0.475	0.725	0.475	Biso	1.000	Al
Al1	1.000	0.475	0.775	0.450	Biso	1.000	Al
Al1	1.000	0.425	0.725	0.500	Biso	1.000	Al
Al1	1.000	0.425	0.775	0.525	Biso	1.000	Al
Al1	1.000	0.475	0.725	0.525	Biso	1.000	Al
Al1	1.000	0.475	0.775	0.500	Biso	1.000	Al
Al1	1.000	0.425	0.725	0.550	Biso	1.000	Al
Al1	1.000	0.425	0.775	0.575	Biso	1.000	Al
Al1	1.000	0.475	0.725	0.575	Biso	1.000	Al
Al1	1.000	0.475	0.775	0.550	Biso	1.000	Al
Al1	1.000	0.425	0.725	0.600	Biso	1.000	Al
Al1	1.000	0.425	0.775	0.625	Biso	1.000	Al
Al1	1.000	0.475	0.725	0.625	Biso	1.000	Al
Al1	1.000	0.475	0.775	0.600	Biso	1.000	Al
Al1	1.000	0.425	0.725	0.650	Biso	1.000	Al
Al1	1.000	0.425	0.775	0.675	Biso	1.000	Al
Al1	1.000	0.475	0.725	0.675	Biso	1.000	Al
Al1	1.000	0.475	0.775	0.650	Biso	1.000	Al
Al1	1.000	0.425	0.725	0.700	Biso	1.000	Al
Al1	1.000	0.425	0.775	0.725	Biso	1.000	Al
Al1	1.000	0.475	0.725	0.725	Biso	1.000	Al
Al1	1.000	0.475	0.775	0.700	Biso	1.000	Al
Al1	1.000	0.425	0.725	0.750	Biso	1.000	Al
Al1	1.000	0.425	0.775	0.775	Biso	1.000	Al
Al1	1.000	0.475	0.725	0.775	Biso	1.000	Al
Al1	1.000	0.475	0.775	0.750	Biso	1.000	Al
Al1	1.000	0.425	0.725	0.800	Biso	1.000	Al
Al1	1.000	0.425	0.775	0.825	Biso	1.000	Al
Al1	1.000	0.475	0.725	0.825	Biso	1.000	Al
Al1	1.000	0.475	0.775	0.800	Biso	1.000	Al
Al1	1.000	0.425	0.725	0.850	Biso	1.000	Al
Al1	1.000	0.425	0.775	0.875	Biso	1.000	Al
Al1	1.000	0.475	0.725	0.875	Biso	1.000	Al
Al1	1.000	0.475	0.775	0.850	Biso	1.000	Al
Al1	1.000	0.425	0.725	0.900	Biso	1.000	Al
Al1	1.000	0.425	0.775	0.925	Biso	1.000	Al
Al1	1.000	0.475	0.725	0.925	Biso	1.000	Al
Al1	1.000	0.475	0.775	0.900	Biso	1.000	Al
Al1	1.000	0.425	0.725	0.950	Biso	1.000	Al
Al1	1.000	0.425	0.775	0.975	Biso	1.000	Al
Al1	1.000	0.475	0.725	0.975	Biso	1.000	Al
Al1	1.000	0.475	0.775	0.950	Biso	1.000	Al
Al1	1.000	0.425	0.825	0.000	Biso	1.000	Al
Al1	1.000	0.425	0.875	0.025	Biso	1.000	Al
Al1	1.000	0.475	0.825	0.025	Biso	1.000	Al
Al1	1.000	0.475	0.875	0.000	Biso	1.000	Al
Al1	1.000	0.425	0.825	0.050	Biso	1.000	Al
Al1	1.000	0.425	0.875	0.075	Biso	1.000	Al
Al1	1.000	0.475	0.825	0.075	Biso	1.000	Al
Al1	1.000	0.475	0.875	0.050	Biso	1.000	Al
Al1	1.000	0.425	0.825	0.100	Biso	1.000	Al
Al1	1.000	0.425	0.875	0.125	Biso	1.000	Al
Al1	1.000	0.475	0.825	0.125	Biso	1.000	Al
Al1	1.000	0.475	0.875	0.100	Biso	1.000	Al
Al1	1.000	0.425	0.825	0.150	Biso	1.000	Al
Al1	1.000	0.425	0.875	0.175	Biso	1.000	Al
Al1	1.000	0.475	0.825	0.175	Biso	1.000	Al
Al1	1.000	0.475	0.875	0.150	Biso	1.000	Al
Al1	1.000	0.425	0.825	0.200	Biso	1.000	Al
Al1	1.000	0.425	0.875	0.225	Biso	1.000	Al
Al1	1.000	0.475	0.825	0.225	Biso	1.000	Al
Al1	1.000	0.475	0.875	0.200	Biso	1.000	Al
Al1	1.000	0.425	0.825	0.250	Biso	1.000	Al
Al1	1.000	0.425	0.875	0.275	Biso	1.000	Al
Al1	1.000	0.475	0.825	0.275	Biso	1.000	Al
Al1	1.000	0.475	0.875	0.250	Biso	1.000	Al
Al1	1.000	0.425	0.825	0.300	Biso	1.000	Al
Al1	1.000	0.425	0.875	0.325	Biso	1.000	Al
Al1	1.000	0.475	0.825	0.325	Biso	1.000	Al
Al1	1.000	0.475	0.875	0.300	Biso	1.000	Al
Al1	1.000	0.425	0.825	0.350	Biso	1.000	Al
Al1	1.000	0.425	0.875	0.375	Biso	1.000	Al
Al1	1.000	0.475	0.825	0.375	Biso	1.000	Al
Al1	1.000	0.475	0.875	0.350	Biso	1.000	Al
Al1	1.000	0.425	0.825	0.400	Biso	1.000	Al
Al1	1.000	0.425	0.875	0.425	Biso	1.000	Al
Al1	1.000	0.475	0.825	0.425	Biso	1.000	Al
Al1	1.000	0.475	0.875	0.400	Biso	1.000	Al
Al1	1.000	0.425	0.825	0.450	Biso	1.000	Al
Al1	1.000	0.425	0.875	0.475	Biso	1.000	Al
Al1	1.000	0.475	0.825	0.475	Biso	1.000	Al
Al1	1.000	0.475	0.875	0.450	Biso	1.000	Al
Al1	1.000	0.425	0.825	0.500	Biso	1.000	Al
Al1	1.000	0.425	0.875	0.525	Biso	1.000	Al
Al1	1.000	0.475	0.825	0.525	Biso	1.000	Al
Al1	1.000	0.475	0.875	0.500	Biso	1.000	Al
Al1	1.000	0.425	0.825	0.550	Biso	1.000	Al
Al1	1.000	0.425	0.875	0.575	Biso	1.000	Al
Al1	1.000	0.475	0.825	0.575	Biso	1.000	Al
Al1	1.000	0.475	0.875	0.550	Biso	1.000	Al
Al1	1.000	0.425	0.825	0.600	Biso	1.000	Al
Al1	1.000	0.425	0.875	0.625	Biso	1.000	Al
Al1	1.000	0.475	0.825	0.625	Biso	1.000	Al
Al1	1.000	0.475	0.875	0.600	Biso	1.000	Al
Al1	1.000	0.425	0.825	0.650	Biso	1.000	Al
Al1	1.000	0.425	0.875	0.675	Biso	1.000	Al
Al1	1.000	0.475	0.825	0.675	Biso	1.000	Al
Al1	1.000	0.475	0.875	0.650	Biso	1.000	Al
Al1	1.000	0.425	0.825	0.700	Biso	1.000	Al
Al1	1.000	0.425	0.875	0.725	Biso	1.000	Al
Al1	1.000	0.475	0.825	0.725	Biso	1.000	Al
Al1	1.000	0.475	0.875	0.700	Biso	1.000	Al
Al1	1.000	0.425	0.825	0.750	Biso	1.000	Al
Al1	1.000	0.425	0.875	0.775	Biso	1.000	Al
Al1	1.000	0.475	0.825	0.775	Biso	1.000	Al
Al1	1.000	0.475	0.875	0.750	Biso	1.000	Al
Al1	1.000	0.425	0.825	0.800	Biso	1.000	Al
Al1	1.000	0.425	0.875	0.825	Biso	1.000	Al
Al1	1.000	0.475	0.825	0.825	Biso	1.000	Al
Al1	1.000	0.475	0.875	0.800	Biso	1.000	Al
Al1	1.000	0.425	0.825	0.850	Biso	1.000	Al
Al1	1.000	0.425	0.875	0.875	Biso	1.000	Al
Al1	1.000	0.475	0.825	0.875	Biso	1.000	Al
Al1	1.000	0.475	0.875	0.850	Biso	1.000	Al
Al1	1.000	0.425	0.825	0.900	Biso	1.000	Al
Al1	1.000	0.425	0.875	0.925	Biso	1.000	Al
Al1	1.000	0.475	0.825	0.925	Biso	1.000	Al
Al1	1.000	0.475	0.875	0.900	Biso	1.000	Al
Al1	1.000	0.425	0.825	0.950	Biso	1.000	Al
Al1	1.000	0.425	0.875	0.975	Biso	1.000	Al
Al1	1.000	0.475	0.825	0.975	Biso	1.000	Al
Al1	1.000	0.475	0.875	0.950	Biso	1.000	Al
Al1	1.000	0.425	0.925	0.000	Biso	1.000	Al
Al1	1.000	0.425	0.975	0.025	Biso	1.000	Al
Al1	1.000	0.475	0.925	0.025	Biso	1.000	Al
Al1	1.000	0.475	0.975	0.000	Biso	1.000	Al
Al1	1.000	0.425	0.925	0.050	Biso	1.000	Al
Al1	1.000	0.425	0.975	0.075	Biso	1.000	Al
Al1	1.000	0.475	0.925	0.075	Biso	1.000	Al
Al1	1.000	0.475	0.975	0.050	Biso	1.000	Al
Al1	1.000	0.425	0.925	0.100	Biso	1.000	Al
Al1	1.000	0.425	0.975	0.125	Biso	1.000	Al
Al1	1.000	0.475	0.925	0.125	Biso	1.000	Al
Al1	1.000	0.475	0.975	0.100	Biso	1.000	Al
Al1	1.000	0.425	0.925	0.150	Biso	1.000	Al
Al1	1.000	0.425	0.975	0.175	Biso	1.000	Al
Al1	1.000	0.475	0.925	0.175	Biso	1.000	Al
Al1	1.000	0.475	0.975	0.150	Biso	1.000	Al
Al1	1.000	0.425	0.925	0.200	Biso	1.000	Al
Al1	1.000	0.425	0.975	0.225	Biso	1.000	Al
Al1	1.000	0.475	0.925	0.225	Biso	1.000	Al
Al1	1.000	0.475	0.975	0.200	Biso	1.000	Al
Al1	1.000	0.425	0.925	0.250	Biso	1.000	Al
Al1	1.000	0.425	0.975	0.275	Biso	1.000	Al
Al1	1.000	0.475	0.925	0.275	Biso	1.000	Al
Al1	1.000	0.475	0.975	0.250	Biso	1.000	Al
Al1	1.000	0.425	0.925	0.300	Biso	1.000	Al
Al1	1.000	0.425	0.975	0.325	Biso	1.000	Al
Al1	1.000	0.475	0.925	0.325	Biso	1.000	Al
Al1	1.000	0.475	0.975	0.300	Biso	1.000	Al
Al1	1.000	0.425	0.925	0.350	Biso	1.000	Al
Al1	1.000	0.425	0.975	0.375	Biso	1.000	Al
Al1	1.000	0.475	0.925	0.375	Biso	1.000	Al
Al1	1.000	0.475	0.975	0.350	Biso	1.000	Al
Al1	1.000	0.425	0.925	0.400	Biso	1.000	Al
Al1	1.000	0.425	0.975	0.425	Biso	1.000	Al
Al1	1.000	0.475	0.925	0.425	Biso	1.000	Al
Al1	1.000	0.475	0.975	0.400	Biso	1.000	Al
Al1	1.000	0.425	0.925	0.450	Biso	1.000	Al
Al1	1.000	0.425	0.975	0.475	Biso	1.000	Al
Al1	1.000	0.475	0.925	0.475	Biso	1.000	Al
Al1	1.000	0.475	0.975	0.450	Biso	1.000	Al
Al1	1.000	0.425	0.925	0.500	Biso	1.000	Al
Al1	1.000	0.425	0.975	0.525	Biso	1.000	Al
Al1	1.000	0.475	0.925	0.525	Biso	1.000	Al
Al1	1.000	0.475	0.975	0.500	Biso	1.000	Al
Al1	1.000	0.425	0.925	0.550	Biso	1.000	Al
Al1	1.000	0.425	0.975	0.575	Biso	1.000	Al
Al1	1.000	0.475	0.925	0.575	Biso	1.000	Al
Al1	1.000	0.475	0.975	0.550	Biso	1.000	Al
Al1	1.000	0.425	0.925	0.600	Biso	1.000	Al
Al1	1.000	0.425	0.975	0.625	Biso	1.000	Al
Al1	1.000	0.475	0.925	0.625	Biso	1.000	Al
Al1	1.000	0.475	0.975	0.600	Biso	1.000	Al
Al1	1.000	0.425	0.925	0.650	Biso	1.000	Al
Al1	1.000	0.425	0.975	0.675	Biso	1.000	Al
Al1	1.000	0.475	0.925	0.675	Biso	1.000	Al
Al1	1.000	0.475	0.975	0.650	Biso	1.000	Al
Al1	1.000	0.425	0.925	0.700	Biso	1.000	Al
Al1	1.000	0.425	0.975	0.725	Biso	1.000	Al
Al1	1.000	0.475	0.925	0.725	Biso	1.000	Al
Al1	1.000	0.475	0.975	0.700	Biso	1.000	Al
Al1	1.000	0.425	0.925	0.750	Biso	1.000	Al
Al1	1.000	0.425	0.975	0.775	Biso	1.000	Al
Al1	1.000	0.475	0.925	0.775	Biso	1.000	Al
Al1	1.000	0.475	0.975	0.750	Biso	1.000	Al
Al1	1.000	0.425	0.925	0.800	Biso	1.000	Al
Al1	1.000	0.425	0.975	0.825	Biso	1.000	Al
Al1	1.000	0.475	0.925	0.825	Biso	1.000	Al
Al1	1.000	0.475	0.975	0.800	Biso	1.000	Al
Al1	1.000	0.425	0.925	0.850	Biso	1.000	Al
Al1	1.000	0.425	0.975	0.875	Biso	1.000	Al
Al1	1.000	0.475	0.925	0.875	Biso	1.000	Al
Al1	1.000	0.475	0.975	0.850	Biso	1.000	Al
Al1	1.000	0.425	0.925	0.900	Biso	1.000	Al
Al1	1.000	0.425	0.975	0.925	Biso	1.000	Al
Al1	1.000	0.475	0.925	0.925	Biso	1.000	Al
Al1	1.000	0.475	0.975	0.900	Biso	1.000	Al
Al1	1.000	0.425	0.925	0.950	Biso	1.000	Al
Al1	1.000	0.425	0.975	0.975	Biso	1.000	Al
Al1	1.000	0.475	0.925	0.975	Biso	1.000	Al
Al1	1.000	0.475	0.975	0.950	Biso	1.000	Al
Al1	1.000	0.525	0.025	0.000	Biso	1.000	Al
Al1	1.000	0.525	0.075	0.025	Biso	1.000	Al
Al1	1.000	0.575	0.025	0.025	Biso	1.000	Al
Al1	1.000	0.575	0.075	0.000	Biso	1.000	Al
Al1	1.000	0.525	0.025	0.050	Biso	1.000	Al
Al1	1.000	0.525	0.075	0.075	Biso	1.000	Al
Al1	1.000	0.575	0.025	0.075	Biso	1.000	Al
Al1	1.000	0.575	0.075	0.050	Biso	1.000	Al
Al1	1.000	0.525	0.025	0.100	Biso	1.000	Al
Al1	1.000	0.525	0.075	0.125	Biso	1.000	Al
Al1	1.000	0.575	0.025	0.125	Biso	1.000	Al
Al1	1.000	0.575	0.075	0.100	Biso	1.000	Al
Al1	1.000	0.525	0.025	0.150	Biso	1.000	Al
Al1	1.000	0.525	0.075	0.175	Biso	1.000	Al
Al1	1.000	0.575	0.025	0.175	Biso	1.000	Al
Al1	1.000	0.575	0.075	0.150	Biso	1.000	Al
Al1	1.000	0.525	0.025	0.200	Biso	1.000	Al
Al1	1.000	0.525	0.075	0.225	Biso	1.000	Al
Al1	1.000	0.575	0.025	0.225	Biso	1.000	Al
Al1	1.000	0.575	0.075	0.200	Biso	1.000	Al
Al1	1.000	0.525	0.025	0.250	Biso	1.000	Al
Al1	1.000	0.525	0.075	0.275	Biso	1.000	Al
Al1	1.000	0.575	0.025	0.275	Biso	1.000	Al
Al1	1.000	0.575	0.075	0.250	Biso	1.000	Al
Al1	1.000	0.525	0.025	0.300	Biso	1.000	Al
Al1	1.000	0.525	0.075	0.325	Biso	1.000	Al
Al1	1.000	0.575	0.025	0.325	Biso	1.000	Al
Al1	1.000	0.575	0.075	0.300	Biso	1.000	Al
Al1	1.000	0.525	0.025	0.350	Biso	1.000	Al
Al1	1.000	0.525	0.075	0.375	Biso	1.000	Al
Al1	1.000	0.575	0.025	0.375	Biso	1.000	Al
Al1	1.000	0.575	0.075	0.350	Biso	1.000	Al
Al1	1.000	0.525	0.025	0.400	Biso	1.000	Al
Al1	1.000	0.525	0.075	0.425	Biso	1.000	Al
Al1	1.000	0.575	0.025	0.425	Biso	1.000	Al
Al1	1.000	0.575	0.075	0.400	Biso	1.000	Al
Al1	1.000	0.525	0.025	0.450	Biso	1.000	Al
Al1	1.000	0.525	0.075	0.475	Biso	1.000	Al
Al1	1.000	0.575	0.025	0.475	Biso	1.000	Al
Al1	1.000	0.575	0.075	0.450	Biso	1.000	Al
Al1	1.000	0.525	0.025	0.500	Biso	1.000	Al
Al1	1.000	0.525	0.075	0.525	Biso	1.000	Al
Al1	1.000	0.575	0.025	0.525	Biso	1.000	Al
Al1	1.000	0.575	0.075	0.500	Biso	1.000	Al
Al1	1.000	0.525	0.025	0.550	Biso	1.000	Al
Al1	1.000	0.525	0.075	0.575	Biso	1.000	Al
Al1	1.000	0.575	0.025	0.575	Biso	1.000	Al
Al1	1.000	0.575	0.075	0.550	Biso	1.000	Al
Al1	1.000	0.525	0.025	0.600	Biso	1.000	Al
Al1	1.000	0.525	0.075	0.625	Biso	1.000	Al
Al1	1.000	0.575	0.025	0.625	Biso	1.000	Al
Al1	1.000	0.575	0.075	0.600	Biso	1.000	Al
Al1	1.000	0.525	0.025	0.650	Biso	1.000	Al
Al1	1.000	0.525	0.075	0.675	Biso	1.000	Al
Al1	1.000	0.575	0.025	0.675	Biso	1.000	Al
Al1	1.000	0.575	0.075	0.650	Biso	1.000	Al
Al1	1.000	0.525	0.025	0.700	Biso	1.000	Al
Al1	1.000	0.525	0.075	0.725	Biso	1.000	Al
Al1	1.000	0.575	0.025	0.725	Biso	1.000	Al
Al1	1.000	0.575	0.075	0.700	Biso	1.000	Al
Al1	1.000	0.525	0.025	0.750	Biso	1.000	Al
Al1	1.000	0.525	0.075	0.775	Biso	1.000	Al
Al1	1.000	0.575	0.025	0.775	Biso	1.000	Al
Al1	1.000	0.575	0.075	0.750	Biso	1.000	Al
Al1	1.000	0.525	0.025	0.800	Biso	1.000	Al
Al1	1.000	0.525	0.075	0.825	Biso	1.000	Al
Al1	1.000	0.575	0.025	0.825	Biso	1.000	Al
Al1	1.000	0.575	0.075	0.800	Biso	1.000	Al
Al1	1.000	0.525	0.025	0.850	Biso	1.000	Al
Al1	1.000	0.525	0.075	0.875	Biso	1.000	Al
Al1	1.000	0.575	0.025	0.875	Biso	1.000	Al
Al1	1.000	0.575	0.075	0.850	Biso	1.000	Al
Al1	1.000	0.525	0.025	0.900	Biso	1.000	Al
Al1	1.000	0.525	0.075	0.925	Biso	1.000	Al
Al1	1.000	0.575	0.025	0.925	Biso	1.000	Al
Al1	1.000	0.575	0.075	0.900	Biso	1.000	Al
Al1	1.000	0.525	0.025	0.950	Biso	1.000	Al
Al1	1.000	0.525	0.075	0.975	Biso	1.000	Al
Al1	1.000	0.575	0.025	0.975	Biso	1.000	Al
Al1	1.000	0.575	0.075	0.950	Biso	1.000	Al
Al1	1.000	0.525	0.125	0.000	Biso	1.000	Al
Al1	1.000	0.525	0.175	0.025	Biso	1.000	Al
Al1	1.000	0.575	0.125	0.025	Biso	1.000	Al
Al1	1.000	0.575	0.175	0.000	Biso	1.000	Al
Al1	1.000	0.525	0.125	0.050	Biso	1.000	Al
Al1	1.000	0.525	0.175	0.075	Biso	1.000	Al
Al1	1.000	0.575	0.125	0.075	Biso	1.000	Al
Al1	1.000	0.575	0.175	0.050	Biso	1.000	Al
Al1	1.000	0.525	0.125	0.100	Biso	1.000	Al
Al1	1.000	0.525	0.175	0.125	Biso	1.000	Al
Al1	1.000	0.575	0.125	0.125	Biso	1.000	Al
Al1	1.000	0.575	0.175	0.100	Biso	1.000	Al
Al1	1.000	0.525	0.125	0.150	Biso	1.000	Al
Al1	1.000	0.525	0.175	0.175	Biso	1.000	Al
Al1	1.000	0.575	0.125	0.175	Biso	1.000	Al
Al1	1.000	0.575	0.175	0.150	Biso	1.000	Al
Al1	1.000	0.525	0.125	0.200	Biso	1.000	Al
Al1	1.000	0.525	0.175	0.225	Biso	1.000	Al
Al1	1.000	0.575	0.125	0.225	Biso	1.000	Al
Al1	1.000	0.575	0.175	0.200	Biso	1.000	Al
Al1	1.000	0.525	0.125	0.250	Biso	1.000	Al
Al1	1.000	0.525	0.175	0.275	Biso	1.000	Al
Al1	1.000	0.575	0.125	0.275	Biso	1.000	Al
Al1	1.000	0.575	0.175	0.250	Biso	1.000	Al
Al1	1.000	0.525	0.125	0.300	Biso	1.000	Al
Al1	1.000	0.525	0.175	0.325	Biso	1.000	Al
Al1	1.000	0.575	0.125	0.325	Biso	1.000	Al
Al1	1.000	0.575	0.175	0.300	Biso	1.000	Al
Al1	1.000	0.525	0.125	0.350	Biso	1.000	Al
Al1	1.000	0.525	0.175	0.375	Biso	1.000	Al
Al1	1.000	0.575	0.125	0.375	Biso	1.000	Al
Al1	1.000	0.575	0.175	0.350	Biso	1.000	Al
Al1	1.000	0.525	0.125	0.400	Biso	1.000	Al
Al1	1.000	0.525	0.175	0.425	Biso	1.000	Al
Al1	1.000	0.575	0.125	0.425	Biso	1.000	Al
Al1	1.000	0.575	0.175	0.400	Biso	1.000	Al
Al1	1.000	0.525	0.125	0.450	Biso	1.000	Al
Al1	1.000	0.525	0.175	0.475	Biso	1.000	Al
Al1	1.000	0.575	0.125	0.475	Biso	1.000	Al
Al1	1.000	0.575	0.175	0.450	Biso	1.000	Al
Al1	1.000	0.525	0.125	0.500	Biso	1.000	Al
Al1	1.000	0.525	0.175	0.525	Biso	1.000	Al
Al1	1.000	0.575	0.125	0.525	Biso	1.000	Al
Al1	1.000	0.575	0.175	0.500	Biso	1.000	Al
Al1	1.000	0.525	0.125	0.550	Biso	1.000	Al
Al1	1.000	0.525	0.175	0.575	Biso	1.000	Al
Al1	1.000	0.575	0.125	0.575	Biso	1.000	Al
Al1	1.000	0.575	0.175	0.550	Biso	1.000	Al
Al1	1.000	0.525	0.125	0.600	Biso	1.000	Al
Al1	1.000	0.525	0.175	0.625	Biso	1.000	Al
Al1	1.000	0.575	0.125	0.625	Biso	1.000	Al
Al1	1.000	0.575	0.175	0.600	Biso	1.000	Al
Al1	1.000	0.525	0.125	0.650	Biso	1.000	Al
Al1	1.000	0.525	0.175	0.675	Biso	1.000	Al
Al1	1.000	0.575	0.125	0.675	Biso	1.000	Al
Al1	1.000	0.575	0.175	0.650	Biso	1.000	Al
Al1	1.000	0.525	0.125	0.700	Biso	1.000	Al
Al1	1.000	0.525	0.175	0.725	Biso	1.000	Al
Al1	1.000	0.575	0.125	0.725	Biso	1.000	Al
Al1	1.000	0.575	0.175	0.700	Biso	1.000	Al
Al1	1.000	0.525	0.125	0.750	Biso	1.000	Al
Al1	1.000	0.525	0.175	0.775	Biso	1.000	Al
Al1	1.000	0.575	0.125	0.775	Biso	1.000	Al
Al1	1.000	0.575	0.175	0.750	Biso	1.000	Al
Al1	1.000	0.525	0.125	0.800	Biso	1.000	Al
Al1	1.000	0.525	0.175	0.825	Biso	1.000	Al
Al1	1.000	0.575	0.125	0.825	Biso	1.000	Al
Al1	1.000	0.575	0.175	0.800	Biso	1.000	Al
Al1	1.000	0.525	0.125	0.850	Biso	1.000	Al
Al1	1.000	0.525	0.175	0.875	Biso	1.000	Al
Al1	1.000	0.575	0.125	0.875	Biso	1.000	Al
Al1	1.000	0.575	0.175	0.850	Biso	1.000	Al
Al1	1.000	0.525	0.125	0.900	Biso	1.000	Al
Al1	1.000	0.525	0.175	0.925	Biso	1.000	Al
Al1	1.000	0.575	0.125	0.925	Biso	1.000	Al
Al1	1.000	0.575	0.175	0.900	Biso	1.000	Al
Al1	1.000	0.525	0.125	0.950	Biso	1.000	Al
Al1	1.000	0.525	0.175	0.975	Biso	1.000	Al
Al1	1.000	0.575	0.125	0.975	Biso	1.000	Al
Al1	1.000	0.575	0.175	0.950	Biso	1.000	Al
Al1	1.000	0.525	0.225	0.000	Biso	1.000	Al
Al1	1.000	0.525	0.275	0.025	Biso	1.000	Al
Al1	1.000	0.575	0.225	0.025	Biso	1.000	Al
Al1	1.000	0.575	0.275	0.000	Biso	1.000	Al
Al1	1.000	0.525	0.225	0.050	Biso	1.000	Al
Al1	1.000	0.525	0.275	0.075	Biso	1.000	Al
Al1	1.000	0.575	0.225	0.075	Biso	1.000	Al
Al1	1.000	0.575	0.275	0.050	Biso	1.000	Al
Al1	1.000	0.525	0.225	0.100	Biso	1.000	Al
Al1	1.000	0.525	0.275	0.125	Biso	1.000	Al
Al1	1.000	0.575	0.225	0.125	Biso	1.000	Al
Al1	1.000	0.575	0.275	0.100	Biso	1.000	Al
Al1	1.000	0.525	0.225	0.150	Biso	1.000	Al
Al1	1.000	0.525	0.275	0.175	Biso	1.000	Al
Al1	1.000	0.575	0.225	0.175	Biso	1.000	Al
Al1	1.000	0.575	0.275	0.150	Biso	1.000	Al
Al1	1.000	0.525	0.225	0.200	Biso	1.000	Al
Al1	1.000	0.525	0.275	0.225	Biso	1.000	Al
Al1	1.000	0.575	0.225	0.225	Biso	1.000	Al
Al1	1.000	0.575	0.275	0.200	Biso	1.000	Al
Al1	1.000	0.525	0.225	0.250	Biso	1.000	Al
Al1	1.000	0.525	0.275	0.275	Biso	1.000	Al
Al1	1.000	0.575	0.225	0.275	Biso	1.000	Al
Al1	1.000	0.575	0.275	0.250	Biso	1.000	Al
Al1	1.000	0.525	0.225	0.300	Biso	1.000	Al
Al1	1.000	0.525	0.275	0.325	Biso	1.000	Al
Al1	1.000	0.575	0.225	0.325	Biso	1.000	Al
Al1	1.000	0.575	0.275	0.300	Biso	1.000	Al
Al1	1.000	0.525	0.225	0.350	Biso	1.000	Al
Al1	1.000	0.525	0.275	0.375	Biso	1.000	Al
Al1	1.000	0.575	0.225	0.375	Biso	1.000	Al
Al1	1.000	0.575	0.275	0.350	Biso	1.000	Al
Al1	1.000	0.525	0.225	0.400	Biso	1.000	Al
Al1	1.000	0.525	0.275	0.425	Biso	1.000	Al
Al1	1.000	0.575	0.225	0.425	Biso	1.000	Al
Al1	1.000	0.575	0.275	0.400	Biso	1.000	Al
Al1	1.000	0.525	0.225	0.450	Biso	1.000	Al
Al1	1.000	0.525	0.275	0.475	Biso	1.000	Al
Al1	1.000	0.575	0.225	0.475	Biso	1.000	Al
Al1	1.000	0.575	0.275	0.450	Biso	1.000	Al
Al1	1.000	0.525	0.225	0.500	Biso	1.000	Al
Al1	1.000	0.525	0.275	0.525	Biso	1.000	Al
Al1	1.000	0.575	0.225	0.525	Biso	1.000	Al
Al1	1.000	0.575	0.275	0.500	Biso	1.000	Al
Al1	1.000	0.525	0.225	0.550	Biso	1.000	Al
Al1	1.000	0.525	0.275	0.575	Biso	1.000	Al
Al1	1.000	0.575	0.225	0.575	Biso	1.000	Al
Al1	1.000	0.575	0.275	0.550	Biso	1.000	Al
Al1	1.000	0.525	0.225	0.600	Biso	1.000	Al
Al1	1.000	0.525	0.275	0.625	Biso	1.000	Al
Al1	1.000	0.575	0.225	0.625	Biso	1.000	Al
Al1	1.000	0.575	0.275	0.600	Biso	1.000	Al
Al1	1.000	0.525	0.225	0.650	Biso	1.000	Al
Al1	1.000	0.525	0.275	0.675	Biso	1.000	Al
Al1	1.000	0.575	0.225	0.675	Biso	1.000	Al
Al1	1.000	0.575	0.275	0.650	Biso	1.000	Al
Al1	1.000	0.525	0.225	0.700	Biso	1.000	Al
Al1	1.000	0.525	0.275	0.725	Biso	1.000	Al
Al1	1.000	0.575	0.225	0.725	Biso	1.000	Al
Al1	1.000	0.575	0.275	0.700	Biso	1.000	Al
Al1	1.000	0.525	0.225	0.750	Biso	1.000	Al
Al1	1.000	0.525	0.275	0.775	Biso	1.000	Al
Al1	1.000	0.575	0.225	0.775	Biso	1.000	Al
Al1	1.000	0.575	0.275	0.750	Biso	1.000	Al
Al1	1.000	0.525	0.225	0.800	Biso	1.000	Al
Al1	1.000	0.525	0.275	0.825	Biso	1.000	Al
Al1	1.000	0.575	0.225	0.825	Biso	1.000	Al
Al1	1.000	0.575	0.275	0.800	Biso	1.000	Al
Al1	1.000	0.525	0.225	0.850	Biso	1.000	Al
Al1	1.000	0.525	0.275	0.875	Biso	1.000	Al
Al1	1.000	0.575	0.225	0.875	Biso	1.000	Al
Al1	1.000	0.575	0.275	0.850	Biso	1.000	Al
Al1	1.000	0.525	0.225	0.900	Biso	1.000	Al
Al1	1.000	0.525	0.275	0.925	Biso	1.000	Al
Al1	1.000	0.575	0.225	0.925	Biso	1.000	Al
Al1	1.000	0.575	0.275	0.900	Biso	1.000	Al
Al1	1.000	0.525	0.225	0.950	Biso	1.000	Al
Al1	1.000	0.525	0.275	0.975	Biso	1.000	Al
Al1	1.000	0.575	0.225	0.975	Biso	1.000	Al
Al1	1.000	0.575	0.275	0.950	Biso	1.000	Al
Al1	1.000	0.525	0.325	0.000	Biso	1.000	Al
Al1	1.000	0.525	0.375	0.025	Biso	1.000	Al
Al1	1.000	0.575	0.325	0.025	Biso	1.000	Al
Al1	1.000	0.575	0.375	0.000	Biso	1.000	Al
Al1	1.000	0.525	0.325	0.050	Biso	1.000	Al
Al1	1.000	0.525	0.375	0.075	Biso	1.000	Al
Al1	1.000	0.575	0.325	0.075	Biso	1.000	Al
Al1	1.000	0.575	0.375	0.050	Biso	1.000	Al
Al1	1.000	0.525	0.325	0.100	Biso	1.000	Al
Al1	1.000	0.525	0.375	0.125	Biso	1.000	Al
Al1	1.000	0.575	0.325	0.125	Biso	1.000	Al
Al1	1.000	0.575	0.375	0.100	Biso	1.000	Al
Al1	1.000	0.525	0.325	0.150	Biso	1.000	Al
Al1	1.000	0.525	0.375	0.175	Biso	1.000	Al
Al1	1.000	0.575	0.325	0.175	Biso	1.000	Al
Al1	1.000	0.575	0.375	0.150	Biso	1.000	Al
Al1	1.000	0.525	0.325	0.200	Biso	1.000	Al
Al1	1.000	0.525	0.375	0.225	Biso	1.000	Al
Al1	1.000	0.575	0.325	0.225	Biso	1.000	Al
Al1	1.000	0.575	0.375	0.200	Biso	1.000	Al
Al1	1.000	0.525	0.325	0.250	Biso	1.000	Al
Al1	1.000	0.525	0.375	0.275	Biso	1.000	Al
Al1	1.000	0.575	0.325	0.275	Biso	1.000	Al
Al1	1.000	0.575	0.375	0.250	Biso	1.000	Al
Al1	1.000	0.525	0.325	0.300	Biso	1.000	Al
Al1	1.000	0.525	0.375	0.325	Biso	1.000	Al
Al1	1.000	0.575	0.325	0.325	Biso	1.000	Al
Al1	1.000	0.575	0.375	0.300	Biso	1.000	Al
Al1	1.000	0.525	0.325	0.350	Biso	1.000	Al
Al1	1.000	0.525	0.375	0.375	Biso	1.000	Al
Al1	1.000	0.575	0.325	0.375	Biso	1.000	Al
Al1	1.000	0.575	0.375	0.350	Biso	1.000	Al
Al1	1.000	0.525	0.325	0.400	Biso	1.000	Al
Al1	1.000	0.525	0.375	0.425	Biso	1.000	Al
Al1	1.000	0.575	0.325	0.425	Biso	1.000	Al
Al1	1.000	0.575	0.375	0.400	Biso	1.000	Al
Al1	1.000	0.525	0.325	0.450	Biso	1.000	Al
Al1	1.000	0.525	0.375	0.475	Biso	1.000	Al
Al1	1.000	0.575	0.325	0.475	Biso	1.000	Al
Al1	1.000	0.575	0.375	0.450	Biso	1.000	Al
Al1	1.000	0.525	0.325	0.500	Biso	1.000	Al
Al1	1.000	0.525	0.375	0.525	Biso	1.000	Al
Al1	1.000	0.575	0.325	0.525	Biso	1.000	Al
Al1	1.000	0.575	0.375	0.500	Biso	1.000	Al
Al1	1.000	0.525	0.325	0.550	Biso	1.000	Al
Al1	1.000	0.525	0.375	0.575	Biso	1.000	Al
Al1	1.000	0.575	0.325	0.575	Biso	1.000	Al
Al1	1.000	0.575	0.375	0.550	Biso	1.000	Al
Al1	1.000	0.525	0.325	0.600	Biso	1.000	Al
Al1	1.000	0.525	0.375	0.625	Biso	1.000	Al
Al1	1.000	0.575	0.325	0.625	Biso	1.000	Al
Al1	1.000	0.575	0.375	0.600	Biso	1.000	Al
Al1	1.000	0.525	0.325	0.650	Biso	1.000	Al
Al1	1.000	0.525	0.375	0.675	Biso	1.000	Al
Al1	1.000	0.575	0.325	0.675	Biso	1.000	Al
Al1	1.000	0.575	0.375	0.650	Biso	1.000	Al
Al1	1.000	0.525	0.325	0.700	Biso	1.000	Al
Al1	1.000	0.525	0.375	0.725	Biso	1.000	Al
Al1	1.000	0.575	0.325	0.725	Biso	1.000	Al
Al1	1.000	0.575	0.375	0.700	Biso	1.000	Al
Al1	1.000	0.525	0.325	0.750	Biso	1.000	Al
Al1	1.000	0.525	0.375	0.775	Biso	1.000	Al
Al1	1.000	0.575	0.325	0.775	Biso	1.000	Al
Al1	1.000	0.575	0.375	0.750	Biso	1.000	Al
Al1	1.000	0.525	0.325	0.800	Biso	1.000	Al
Al1	1.000	0.525	0.375	0.825	Biso	1.000	Al
Al1	1.000	0.575	0.325	0.825	Biso	1.000	Al
Al1	1.000	0.575	0.375	0.800	Biso	1.000	Al
Al1	1.000	0.525	0.325	0.850	Biso	1.000	Al
Al1	1.000	0.525	0.375	0.875	Biso	1.000	Al
Al1	1.000	0.575	0.325	0.875	Biso	1.000	Al
Al1	1.000	0.575	0.375	0.850	Biso	1.000	Al
Al1	1.000	0.525	0.325	0.900	Biso	1.000	Al
Al1	1.000	0.525	0.375	0.925	Biso	1.000	Al
Al1	1.000	0.575	0.325	0.925	Biso	1.000	Al
Al1	1.000	0.575	0.375	0.900	Biso	1.000	Al
Al1	1.000	0.525	0.325	0.950	Biso	1.000	Al
Al1	1.000	0.525	0.375	0.975	Biso	1.000	Al
Al1	1.000	0.575	0.325	0.975	Biso	1.000	Al
Al1	1.000	0.575	0.375	0.950	Biso	1.000	Al
Al1	1.000	0.525	0.425	0.000	Biso	1.000	Al
Al1	1.000	0.525	0.475	0.025	Biso	1.000	Al
Al1	1.000	0.575	0.425	0.025	Biso	1.000	Al
Al1	1.000	0.575	0.475	0.000	Biso	1.000	Al
Al1	1.000	0.525	0.425	0.050	Biso	1.000	Al
Al1	1.000	0.525	0.475	0.075	Biso	1.000	Al
Al1	1.000	0.575	0.425	0.075	Biso	1.000	Al
Al1	1.000	0.575	0.475	0.050	Biso	1.000	Al
Al1	1.000	0.525	0.425	0.100	Biso	1.000	Al
Al1	1.000	0.525	0.475	0.125	Biso	1.000	Al
Al1	1.000	0.575	0.425	0.125	Biso	1.000	Al
Al1	1.000	0.575	0.475	0.100	Biso	1.000	Al
Al1	1.000	0.525	0.425	0.150	Biso	1.000	Al
Al1	1.000	0.525	0.475	0.175	Biso	1.000	Al
Al1	1.000	0.575	0.425	0.175	Biso	1.000	Al
Al1	1.000	0.575	0.475	0.150	Biso	1.000	Al
Al1	1.000	0.525	0.425	0.200	Biso	1.000	Al
Al1	1.000	0.525	0.475	0.225	Biso	1.000	Al
Al1	1.000	0.575	0.425	0.225	Biso	1.000	Al
Al1	1.000	0.575	0.475	0.200	Biso	1.000	Al
Al1	1.000	0.525	0.425	0.250	Biso	1.000	Al
Al1	1.000	0.525	0.475	0.275	Biso	1.000	Al
Al1	1.000	0.575	0.425	0.275	Biso	1.000	Al
Al1	1.000	0.575	0.475	0.250	Biso	1.000	Al
Al1	1.000	0.525	0.425	0.300	Biso	1.000	Al
Al1	1.000	0.525	0.475	0.325	Biso	1.000	Al
Al1	1.000	0.575	0.425	0.325	Biso	1.000	Al
Al1	1.000	0.575	0.475	0.300	Biso	1.000	Al
Al1	1.000	0.525	0.425	0.350	Biso	1.000	Al
Al1	1.000	0.525	0.475	0.375	Biso	1.000	Al
Al1	1.000	0.575	0.425	0.375	Biso	1.000	Al
Al1	1.000	0.575	0.475	0.350	Biso	1.000	Al
Al1	1.000	0.525	0.425	0.400	Biso	1.000	Al
Al1	1.000	0.525	0.475	0.425	Biso	1.000	Al
Al1	1.000	0.575	0.425	0.425	Biso	1.000	Al
Al1	1.000	0.575	0.475	0.400	Biso	1.000	Al
Al1	1.000	0.525	0.425	0.450	Biso	1.000	Al
Al1	1.000	0.525	0.475	0.475	Biso	1.000	Al
Al1	1.000	0.575	0.425	0.475	Biso	1.000	Al
Al1	1.000	0.575	0.475	0.450	Biso	1.000	Al
Al1	1.000	0.525	0.425	0.500	Biso	1.000	Al
Al1	1.000	0.525	0.475	0.525	Biso	1.000	Al
Al1	1.000	0.575	0.425	0.525	Biso	1.000	Al
Al1	1.000	0.575	0.475	0.500	Biso	1.000	Al
Al1	1.000	0.525	0.425	0.550	Biso	1.000	Al
Al1	1.000	0.525	0.475	0.575	Biso	1.000	Al
Al1	1.000	0.575	0.425	0.575	Biso	1.000	Al
Al1	1.000	0.575	0.475	0.550	Biso	1.000	Al
Al1	1.000	0.525	0.425	0.600	Biso	1.000	Al
Al1	1.000	0.525	0.475	0.625	Biso	1.000	Al
Al1	1.000	0.575	0.425	0.625	Biso	1.000	Al
Al1	1.000	0.575	0.475	0.600	Biso	1.000	Al
Al1	1.000	0.525	0.425	0.650	Biso	1.000	Al
Al1	1.000	0.525	0.475	0.675	Biso	1.000	Al
Al1	1.000	0.575	0.425	0.675	Biso	1.000	Al
Al1	1.000	0.575	0.475	0.650	Biso	1.000	Al
Al1	1.000	0.525	0.425	0.700	Biso	1.000	Al
Al1	1.000	0.525	0.475	0.725	Biso	1.000	Al
Al1	1.000	0.575	0.425	0.725	Biso	1.000	Al
Al1	1.000	0.575	0.475	0.700	Biso	1.000	Al
Al1	1.000	0.525	0.425	0.750	Biso	1.000	Al
Al1	1.000	0.525	0.475	0.775	Biso	1.000	Al
Al1	1.000	0.575	0.425	0.775	Biso	1.000	Al
Al1	1.000	0.575	0.475	0.750	Biso	1.000	Al
Al1	1.000	0.525	0.425	0.800	Biso	1.000	Al
Al1	1.000	0.525	0.475	0.825	Biso	1.000	Al
Al1	1.000	0.575	0.425	0.825	Biso	1.000	Al
Al1	1.000	0.575	0.475	0.800	Biso	1.000	Al
Al1	1.000	0.525	0.425	0.850	Biso	1.000	Al
Al1	1.000	0.525	0.475	0.875	Biso	1.000	Al
Al1	1.000	0.575	0.425	0.875	Biso	1.000	Al
Al1	1.000	0.575	0.475	0.850	Biso	1.000	Al
Al1	1.000	0.525	0.425	0.900	Biso	1.000	Al
Al1	1.000	0.525	0.475	0.925	Biso	1.000	Al
Al1	1.000	0.575	0.425	0.925	Biso	1.000	Al
Al1	1.000	0.575	0.475	0.900	Biso	1.000	Al
Al1	1.000	0.525	0.425	0.950	Biso	1.000	Al
Al1	1.000	0.525	0.475	0.975	Biso	1.000	Al
Al1	1.000	0.575	0.425	0.975	Biso	1.000	Al
Al1	1.000	0.575	0.475	0.950	Biso	1.000	Al
Al1	1.000	0.525	0.525	0.000	Biso	1.000	Al
Al1	1.000	0.525	0.575	0.025	Biso	1.000	Al
Al1	1.000	0.575	0.525	0.025	Biso	1.000	Al
Al1	1.000	0.575	0.575	0.000	Biso	1.000	Al
Al1	1.000	0.525	0.525	0.050	Biso	1.000	Al
Al1	1.000	0.525	0.575	0.075	Biso	1.000	Al
Al1	1.000	0.575	0.525	0.075	Biso	1.000	Al
Al1	1.000	0.575	0.575	0.050	Biso	1.000	Al
Al1	1.000	0.525	0.525	0.100	Biso	1.000	Al
Al1	1.000	0.525	0.575	0.125	Biso	1.000	Al
Al1	1.000	0.575	0.525	0.125	Biso	1.000	Al
Al1	1.000	0.575	0.575	0.100	Biso	1.000	Al
Al1	1.000	0.525	0.525	0.150	Biso	1.000	Al
Al1	1.000	0.525	0.575	0.175	Biso	1.000	Al
Al1	1.000	0.575	0.525	0.175	Biso	1.000	Al
Al1	1.000	0.575	0.575	0.150	Biso	1.000	Al
Al1	1.000	0.525	0.525	0.200	Biso	1.000	Al
Al1	1.000	0.525	0.575	0.225	Biso	1.000	Al
Al1	1.000	0.575	0.525	0.225	Biso	1.000	Al
Al1	1.000	0.575	0.575	0.200	Biso	1.000	Al
Al1	1.000	0.525	0.525	0.250	Biso	1.000	Al
Al1	1.000	0.525	0.575	0.275	Biso	1.000	Al
Al1	1.000	0.575	0.525	0.275	Biso	1.000	Al
Al1	1.000	0.575	0.575	0.250	Biso	1.000	Al
Al1	1.000	0.525	0.525	0.300	Biso	1.000	Al
Al1	1.000	0.525	0.575	0.325	Biso	1.000	Al
Al1	1.000	0.575	0.525	0.325	Biso	1.000	Al
Al1	1.000	0.575	0.575	0.300	Biso	1.000	Al
Al1	1.000	0.525	0.525	0.350	Biso	1.000	Al
Al1	1.000	0.525	0.575	0.375	Biso	1.000	Al
Al1	1.000	0.575	0.525	0.375	Biso	1.000	Al
Al1	1.000	0.575	0.575	0.350	Biso	1.000	Al
Al1	1.000	0.525	0.525	0.400	Biso	1.000	Al
Al1	1.000	0.525	0.575	0.425	Biso	1.000	Al
Al1	1.000	0.575	0.525	0.425	Biso	1.000	Al
Al1	1.000	0.575	0.575	0.400	Biso	1.000	Al
Al1	1.000	0.525	0.525	0.450	Biso	1.000	Al
Al1	1.000	0.525	0.575	0.475	Biso	1.000	Al
Al1	1.000	0.575	0.525	0.475	Biso	1.000	Al
Al1	1.000	0.575	0.575	0.450	Biso	1.000	Al
Al1	1.000	0.525	0.525	0.500	Biso	1.000	Al
Al1	1.000	0.525	0.575	0.525	Biso	1.000	Al
Al1	1.000	0.575	0.525	0.525	Biso	1.000	Al
Al1	1.000	0.575	0.575	0.500	Biso	1.000	Al
Al1	1.000	0.525	0.525	0.550	Biso	1.000	Al
Al1	1.000	0.525	0.575	0.575	Biso	1.000	Al
Al1	1.000	0.575	0.525	0.575	Biso	1.000	Al
Al1	1.000	0.575	0.575	0.550	Biso	1.000	Al
Al1	1.000	0.525	0.525	0.600	Biso	1.000	Al
Al1	1.000	0.525	0.575	0.625	Biso	1.000	Al
Al1	1.000	0.575	0.525	0.625	Biso	1.000	Al
Al1	1.000	0.575	0.575	0.600	Biso	1.000	Al
Al1	1.000	0.525	0.525	0.650	Biso	1.000	Al
Al1	1.000	0.525	0.575	0.675	Biso	1.000	Al
Al1	1.000	0.575	0.525	0.675	Biso	1.000	Al
Al1	1.000	0.575	0.575	0.650	Biso	1.000	Al
Al1	1.000	0.525	0.525	0.700	Biso	1.000	Al
Al1	1.000	0.525	0.575	0.725	Biso	1.000	Al
Al1	1.000	0.575	0.525	0.725	Biso	1.000	Al
Al1	1.000	0.575	0.575	0.700	Biso	1.000	Al
Al1	1.000	0.525	0.525	0.750	Biso	1.000	Al
Al1	1.000	0.525	0.575	0.775	Biso	1.000	Al
Al1	1.000	0.575	0.525	0.775	Biso	1.000	Al
Al1	1.000	0.575	0.575	0.750	Biso	1.000	Al
Al1	1.000	0.525	0.525	0.800	Biso	1.000	Al
Al1	1.000	0.525	0.575	0.825	Biso	1.000	Al
Al1	1.000	0.575	0.525	0.825	Biso	1.000	Al
Al1	1.000	0.575	0.575	0.800	Biso	1.000	Al
Al1	1.000	0.525	0.525	0.850	Biso	1.000	Al
Al1	1.000	0.525	0.575	0.875	Biso	1.000	Al
Al1	1.000	0.575	0.525	0.875	Biso	1.000	Al
Al1	1.000	0.575	0.575	0.850	Biso	1.000	Al
Al1	1.000	0.525	0.525	0.900	Biso	1.000	Al
Al1	1.000	0.525	0.575	0.925	Biso	1.000	Al
Al1	1.000	0.575	0.525	0.925	Biso	1.000	Al
Al1	1.000	0.575	0.575	0.900	Biso	1.000	Al
Al1	1.000	0.525	0.525	0.950	Biso	1.000	Al
Al1	1.000	0.525	0.575	0.975	Biso	1.000	Al
Al1	1.000	0.575	0.525	0.975	Biso	1.000	Al
Al1	1.000	0.575	0.575	0.950	Biso	1.000	Al
Al1	1.000	0.525	0.625	0.000	Biso	1.000	Al
Al1	1.000	0.525	0.675	0.025	Biso	1.000	Al
Al1	1.000	0.575	0.625	0.025	Biso	1.000	Al
Al1	1.000	0.575	0.675	0.000	Biso	1.000	Al
Al1	1.000	0.525	0.625	0.050	Biso	1.000	Al
Al1	1.000	0.525	0.675	0.075	Biso	1.000	Al
Al1	1.000	0.575	0.625	0.075	Biso	1.000	Al
Al1	1.000	0.575	0.675	0.050	Biso	1.000	Al
Al1	1.000	0.525	0.625	0.100	Biso	1.000	Al
Al1	1.000	0.525	0.675	0.125	Biso	1.000	Al
Al1	1.000	0.575	0.625	0.125	Biso	1.000	Al
Al1	1.000	0.575	0.675	0.100	Biso	1.000	Al
Al1	1.000	0.525	0.625	0.150	Biso	1.000	Al
Al1	1.000	0.525	0.675	0.175	Biso	1.000	Al
Al1	1.000	0.575	0.625	0.175	Biso	1.000	Al
Al1	1.000	0.575	0.675	0.150	Biso	1.000	Al
Al1	1.000	0.525	0.625	0.200	Biso	1.000	Al
Al1	1.000	0.525	0.675	0.225	Biso	1.000	Al
Al1	1.000	0.575	0.625	0.225	Biso	1.000	Al
Al1	1.000	0.575	0.675	0.200	Biso	1.000	Al
Al1	1.000	0.525	0.625	0.250	Biso	1.000	Al
Al1	1.000	0.525	0.675	0.275	Biso	1.000	Al
Al1	1.000	0.575	0.625	0.275	Biso	1.000	Al
Al1	1.000	0.575	0.675	0.250	Biso	1.000	Al
Al1	1.000	0.525	0.625	0.300	Biso	1.000	Al
Al1	1.000	0.525	0.675	0.325	Biso	1.000	Al
Al1	1.000	0.575	0.625	0.325	Biso	1.000	Al
Al1	1.000	0.575	0.675	0.300	Biso	1.000	Al
Al1	1.000	0.525	0.625	0.350	Biso	1.000	Al
Al1	1.000	0.525	0.675	0.375	Biso	1.000	Al
Al1	1.000	0.575	0.625	0.375	Biso	1.000	Al
Al1	1.000	0.575	0.675	0.350	Biso	1.000	Al
Al1	1.000	0.525	0.625	0.400	Biso	1.000	Al
Al1	1.000	0.525	0.675	0.425	Biso	1.000	Al
Al1	1.000	0.575	0.625	0.425	Biso	1.000	Al
Al1	1.000	0.575	0.675	0.400	Biso	1.000	Al
Al1	1.000	0.525	0.625	0.450	Biso	1.000	Al
Al1	1.000	0.525	0.675	0.475	Biso	1.000	Al
Al1	1.000	0.575	0.625	0.475	Biso	1.000	Al
Al1	1.000	0.575	0.675	0.450	Biso	1.000	Al
Al1	1.000	0.525	0.625	0.500	Biso	1.000	Al
Al1	1.000	0.525	0.675	0.525	Biso	1.000	Al
Al1	1.000	0.575	0.625	0.525	Biso	1.000	Al
Al1	1.000	0.575	0.675	0.500	Biso	1.000	Al
Al1	1.000	0.525	0.625	0.550	Biso	1.000	Al
Al1	1.000	0.525	0.675	0.575	Biso	1.000	Al
Al1	1.000	0.575	0.625	0.575	Biso	1.000	Al
Al1	1.000	0.575	0.675	0.550	Biso	1.000	Al
Al1	1.000	0.525	0.625	0.600	Biso	1.000	Al
Al1	1.000	0.525	0.675	0.625	Biso	1.000	Al
Al1	1.000	0.575	0.625	0.625	Biso	1.000	Al
Al1	1.000	0.575	0.675	0.600	Biso	1.000	Al
Al1	1.000	0.525	0.625	0.650	Biso	1.000	Al
Al1	1.000	0.525	0.675	0.675	Biso	1.000	Al
Al1	1.000	0.575	0.625	0.675	Biso	1.000	Al
Al1	1.000	0.575	0.675	0.650	Biso	1.000	Al
Al1	1.000	0.525	0.625	0.700	Biso	1.000	Al
Al1	1.000	0.525	0.675	0.725	Biso	1.000	Al
Al1	1.000	0.575	0.625	0.725	Biso	1.000	Al
Al1	1.000	0.575	0.675	0.700	Biso	1.000	Al
Al1	1.000	0.525	0.625	0.750	Biso	1.000	Al
Al1	1.000	0.525	0.675	0.775	Biso	1.000	Al
Al1	1.000	0.575	0.625	0.775	Biso	1.000	Al
Al1	1.000	0.575	0.675	0.750	Biso	1.000	Al
Al1	1.000	0.525	0.625	0.800	Biso	1.000	Al
Al1	1.000	0.525	0.675	0.825	Biso	1.000	Al
Al1	1.000	0.575	0.625	0.825	Biso	1.000	Al
Al1	1.000	0.575	0.675	0.800	Biso	1.000	Al
Al1	1.000	0.525	0.625	0.850	Biso	1.000	Al
Al1	1.000	0.525	0.675	0.875	Biso	1.000	Al
Al1	1.000	0.575	0.625	0.875	Biso	1.000	Al
Al1	1.000	0.575	0.675	0.850	Biso	1.000	Al
Al1	1.000	0.525	0.625	0.900	Biso	1.000	Al
Al1	1.000	0.525	0.675	0.925	Biso	1.000	Al
Al1	1.000	0.575	0.625	0.925	Biso	1.000	Al
Al1	1.000	0.575	0.675	0.900	Biso	1.000	Al
Al1	1.000	0.525	0.625	0.950	Biso	1.000	Al
Al1	1.000	0.525	0.675	0.975	Biso	1.000	Al
Al1	1.000	0.575	0.625	0.975	Biso	1.000	Al
Al1	1.000	0.575	0.675	0.950	Biso	1.000	Al
Al1	1.000	0.525	0.725	0.000	Biso	1.000	Al
Al1	1.000	0.525	0.775	0.025	Biso	1.000	Al
Al1	1.000	0.575	0.725	0.025	Biso	1.000	Al
Al1	1.000	0.575	0.775	0.000	Biso	1.000	Al
Al1	1.000	0.525	0.725	0.050	Biso	1.000	Al
Al1	1.000	0.525	0.775	0.075	Biso	1.000	Al
Al1	1.000	0.575	0.725	0.075	Biso	1.000	Al
Al1	1.000	0.575	0.775	0.050	Biso	1.000	Al
Al1	1.000	0.525	0.725	0.100	Biso	1.000	Al
Al1	1.000	0.525	0.775	0.125	Biso	1.000	Al
Al1	1.000	0.575	0.725	0.125	Biso	1.000	Al
Al1	1.000	0.575	0.775	0.100	Biso	1.000	Al
Al1	1.000	0.525	0.725	0.150	Biso	1.000	Al
Al1	1.000	0.525	0.775	0.175	Biso	1.000	Al
Al1	1.000	0.575	0.725	0.175	Biso	1.000	Al
Al1	1.000	0.575	0.775	0.150	Biso	1.000	Al
Al1	1.000	0.525	0.725	0.200	Biso	1.000	Al
Al1	1.000	0.525	0.775	0.225	Biso	1.000	Al
Al1	1.000	0.575	0.725	0.225	Biso	1.000	Al
Al1	1.000	0.575	0.775	0.200	Biso	1.000	Al
Al1	1.000	0.525	0.725	0.250	Biso	1.000	Al
Al1	1.000	0.525	0.775	0.275	Biso	1.000	Al
Al1	1.000	0.575	0.725	0.275	Biso	1.000	Al
Al1	1.000	0.575	0.775	0.250	Biso	1.000	Al
Al1	1.000	0.525	0.725	0.300	Biso	1.000	Al
Al1	1.000	0.525	0.775	0.325	Biso	1.000	Al
Al1	1.000	0.575	0.725	0.325	Biso	1.000	Al
Al1	1.000	0.575	0.775	0.300	Biso	1.000	Al
Al1	1.000	0.525	0.725	0.350	Biso	1.000	Al
Al1	1.000	0.525	0.775	0.375	Biso	1.000	Al
Al1	1.000	0.575	0.725	0.375	Biso	1.000	Al
Al1	1.000	0.575	0.775	0.350	Biso	1.000	Al
Al1	1.000	0.525	0.725	0.400	Biso	1.000	Al
Al1	1.000	0.525	0.775	0.425	Biso	1.000	Al
Al1	1.000	0.575	0.725	0.425	Biso	1.000	Al
Al1	1.000	0.575	0.775	0.400	Biso	1.000	Al
Al1	1.000	0.525	0.725	0.450	Biso	1.000	Al
Al1	1.000	0.525	0.775	0.475	Biso	1.000	Al
Al1	1.000	0.575	0.725	0.475	Biso	1.000	Al
Al1	1.000	0.575	0.775	0.450	Biso	1.000	Al
Al1	1.000	0.525	0.725	0.500	Biso	1.000	Al
Al1	1.000	0.525	0.775	0.525	Biso	1.000	Al
Al1	1.000	0.575	0.725	0.525	Biso	1.000	Al
Al1	1.000	0.575	0.775	0.500	Biso	1.000	Al
Al1	1.000	0.525	0.725	0.550	Biso	1.000	Al
Al1	1.000	0.525	0.775	0.575	Biso	1.000	Al
Al1	1.000	0.575	0.725	0.575	Biso	1.000	Al
Al1	1.000	0.575	0.775	0.550	Biso	1.000	Al
Al1	1.000	0.525	0.725	0.600	Biso	1.000	Al
Al1	1.000	0.525	0.775	0.625	Biso	1.000	Al
Al1	1.000	0.575	0.725	0.625	Biso	1.000	Al
Al1	1.000	0.575	0.775	0.600	Biso	1.000	Al
Al1	1.000	0.525	0.725	0.650	Biso	1.000	Al
Al1	1.000	0.525	0.775	0.675	Biso	1.000	Al
Al1	1.000	0.575	0.725	0.675	Biso	1.000	Al
Al1	1.000	0.575	0.775	0.650	Biso	1.000	Al
Al1	1.000	0.525	0.725	0.700	Biso	1.000	Al
Al1	1.000	0.525	0.775	0.725	Biso	1.000	Al
Al1	1.000	0.575	0.725	0.725	Biso	1.000	Al
Al1	1.000	0.575	0.775	0.700	Biso	1.000	Al
Al1	1.000	0.525	0.725	0.750	Biso	1.000	Al
Al1	1.000	0.525	0.775	0.775	Biso	1.000	Al
Al1	1.000	0.575	0.725	0.775	Biso	1.000	Al
Al1	1.000	0.575	0.775	0.750	Biso	1.000	Al
Al1	1.000	0.525	0.725	0.800	Biso	1.000	Al
Al1	1.000	0.525	0.775	0.825	Biso	1.000	Al
Al1	1.000	0.575	0.725	0.825	Biso	1.000	Al
Al1	1.000	0.575	0.775	0.800	Biso	1.000	Al
Al1	1.000	0.525	0.725	0.850	Biso	1.000	Al
Al1	1.000	0.525	0.775	0.875	Biso	1.000	Al
Al1	1.000	0.575	0.725	0.875	Biso	1.000	Al
Al1	1.000	0.575	0.775	0.850	Biso	1.000	Al
Al1	1.000	0.525	0.725	0.900	Biso	1.000	Al
Al1	1.000	0.525	0.775	0.925	Biso	1.000	Al
Al1	1.000	0.575	0.725	0.925	Biso	1.000	Al
Al1	1.000	0.575	0.775	0.900	Biso	1.000	Al
Al1	1.000	0.525	0.725	0.950	Biso	1.000	Al
Al1	1.000	0.525	0.775	0.975	Biso	1.000	Al
Al1	1.000	0.575	0.725	0.975	Biso	1.000	Al
Al1	1.000	0.575	0.775	0.950	Biso	1.000	Al
Al1	1.000	0.525	0.825	0.000	Biso	1.000	Al
Al1	1.000	0.525	0.875	0.025	Biso	1.000	Al
Al1	1.000	0.575	0.825	0.025	Biso	1.000	Al
Al1	1.000	0.575	0.875	0.000	Biso	1.000	Al
Al1	1.000	0.525	0.825	0.050	Biso	1.000	Al
Al1	1.000	0.525	0.875	0.075	Biso	1.000	Al
Al1	1.000	0.575	0.825	0.075	Biso	1.000	Al
Al1	1.000	0.575	0.875	0.050	Biso	1.000	Al
Al1	1.000	0.525	0.825	0.100	Biso	1.000	Al
Al1	1.000	0.525	0.875	0.125	Biso	1.000	Al
Al1	1.000	0.575	0.825	0.125	Biso	1.000	Al
Al1	1.000	0.575	0.875	0.100	Biso	1.000	Al
Al1	1.000	0.525	0.825	0.150	Biso	1.000	Al
Al1	1.000	0.525	0.875	0.175	Biso	1.000	Al
Al1	1.000	0.575	0.825	0.175	Biso	1.000	Al
Al1	1.000	0.575	0.875	0.150	Biso	1.000	Al
Al1	1.000	0.525	0.825	0.200	Biso	1.000	Al
Al1	1.000	0.525	0.875	0.225	Biso	1.000	Al
Al1	1.000	0.575	0.825	0.225	Biso	1.000	Al
Al1	1.000	0.575	0.875	0.200	Biso	1.000	Al
Al1	1.000	0.525	0.825	0.250	Biso	1.000	Al
Al1	1.000	0.525	0.875	0.275	Biso	1.000	Al
Al1	1.000	0.575	0.825	0.275	Biso	1.000	Al
Al1	1.000	0.575	0.875	0.250	Biso	1.000	Al
Al1	1.000	0.525	0.825	0.300	Biso	1.000	Al
Al1	1.000	0.525	0.875	0.325	Biso	1.000	Al
Al1	1.000	0.575	0.825	0.325	Biso	1.000	Al
Al1	1.000	0.575	0.875	0.300	Biso	1.000	Al
Al1	1.000	0.525	0.825	0.350	Biso	1.000	Al
Al1	1.000	0.525	0.875	0.375	Biso	1.000	Al
Al1	1.000	0.575	0.825	0.375	Biso	1.000	Al
Al1	1.000	0.575	0.875	0.350	Biso	1.000	Al
Al1	1.000	0.525	0.825	0.400	Biso	1.000	Al
Al1	1.000	0.525	0.875	0.425	Biso	1.000	Al
Al1	1.000	0.575	0.825	0.425	Biso	1.000	Al
Al1	1.000	0.575	0.875	0.400	Biso	1.000	Al
Al1	1.000	0.525	0.825	0.450	Biso	1.000	Al
Al1	1.000	0.525	0.875	0.475	Biso	1.000	Al
Al1	1.000	0.575	0.825	0.475	Biso	1.000	Al
Al1	1.000	0.575	0.875	0.450	Biso	1.000	Al
Al1	1.000	0.525	0.825	0.500	Biso	1.000	Al
Al1	1.000	0.525	0.875	0.525	Biso	1.000	Al
Al1	1.000	0.575	0.825	0.525	Biso	1.000	Al
Al1	1.000	0.575	0.875	0.500	Biso	1.000	Al
Al1	1.000	0.525	0.825	0.550	Biso	1.000	Al
Al1	1.000	0.525	0.875	0.575	Biso	1.000	Al
Al1	1.000	0.575	0.825	0.575	Biso	1.000	Al
Al1	1.000	0.575	0.875	0.550	Biso	1.000	Al
Al1	1.000	0.525	0.825	0.600	Biso	1.000	Al
Al1	1.000	0.525	0.875	0.625	Biso	1.000	Al
Al1	1.000	0.575	0.825	0.625	Biso	1.000	Al
Al1	1.000	0.575	0.875	0.600	Biso	1.000	Al
Al1	1.000	0.525	0.825	0.650	Biso	1.000	Al
Al1	1.000	0.525	0.875	0.675	Biso	1.000	Al
Al1	1.000	0.575	0.825	0.675	Biso	1.000	Al
Al1	1.000	0.575	0.875	0.650	Biso	1.000	Al
Al1	1.000	0.525	0.825	0.700	Biso	1.000	Al
Al1	1.000	0.525	0.875	0.725	Biso	1.000	Al
Al1	1.000	0.575	0.825	0.725	Biso	1.000	Al
Al1	1.000	0.575	0.875	0.700	Biso	1.000	Al
Al1	1.000	0.525	0.825	0.750	Biso	1.000	Al
Al1	1.000	0.525	0.875	0.775	Biso	1.000	Al
Al1	1.000	0.575	0.825	0.775	Biso	1.000	Al
Al1	1.000	0.575	0.875	0.750	Biso	1.000	Al
Al1	1.000	0.525	0.825	0.800	Biso	1.000	Al
Al1	1.000	0.525	0.875	0.825	Biso	1.000	Al
Al1	1.000	0.575	0.825	0.825	Biso	1.000	Al
Al1	1.000	0.575	0.875	0.800	Biso	1.000	Al
Al1	1.000	0.525	0.825	0.850	Biso	1.000	Al
Al1	1.000	0.525	0.875	0.875	Biso	1.000	Al
Al1	1.000	0.575	0.825	0.875	Biso	1.000	Al
Al1	1.000	0.575	0.875	0.850	Biso	1.000	Al
Al1	1.000	0.525	0.825	0.900	Biso	1.000	Al
Al1	1.000	0.525	0.875	0.925	Biso	1.000	Al
Al1	1.000	0.575	0.825	0.925	Biso	1.000	Al
Al1	1.000	0.575	0.875	0.900	Biso	1.000	Al
Al1	1.000	0.525	0.825	0.950	Biso	1.000	Al
Al1	1.000	0.525	0.875	0.975	Biso	1.000	Al
Al1	1.000	0.575	0.825	0.975	Biso	1.000	Al
Al1	1.000	0.575	0.875	0.950	Biso	1.000	Al
Al1	1.000	0.525	0.925	0.000	Biso	1.000	Al
Al1	1.000	0.525	0.975	0.025	Biso	1.000	Al
Al1	1.000	0.575	0.925	0.025	Biso	1.000	Al
Al1	1.000	0.575	0.975	0.000	Biso	1.000	Al
Al1	1.000	0.525	0.925	0.050	Biso	1.000	Al
Al1	1.000	0.525	0.975	0.075	Biso	1.000	Al
Al1	1.000	0.575	0.925	0.075	Biso	1.000	Al
Al1	1.000	0.575	0.975	0.050	Biso	1.000	Al
Al1	1.000	0.525	0.925	0.100	Biso	1.000	Al
Al1	1.000	0.525	0.975	0.125	Biso	1.000	Al
Al1	1.000	0.575	0.925	0.125	Biso	1.000	Al
Al1	1.000	0.575	0.975	0.100	Biso	1.000	Al
Al1	1.000	0.525	0.925	0.150	Biso	1.000	Al
Al1	1.000	0.525	0.975	0.175	Biso	1.000	Al
Al1	1.000	0.575	0.925	0.175	Biso	1.000	Al
Al1	1.000	0.575	0.975	0.150	Biso	1.000	Al
Al1	1.000	0.525	0.925	0.200	Biso	1.000	Al
Al1	1.000	0.525	0.975	0.225	Biso	1.000	Al
Al1	1.000	0.575	0.925	0.225	Biso	1.000	Al
Al1	1.000	0.575	0.975	0.200	Biso	1.000	Al
Al1	1.000	0.525	0.925	0.250	Biso	1.000	Al
Al1	1.000	0.525	0.975	0.275	Biso	1.000	Al
Al1	1.000	0.575	0.925	0.275	Biso	1.000	Al
Al1	1.000	0.575	0.975	0.250	Biso	1.000	Al
Al1	1.000	0.525	0.925	0.300	Biso	1.000	Al
Al1	1.000	0.525	0.975	0.325	Biso	1.000	Al
Al1	1.000	0.575	0.925	0.325	Biso	1.000	Al
Al1	1.000	0.575	0.975	0.300	Biso	1.000	Al
Al1	1.000	0.525	0.925	0.350	Biso	1.000	Al
Al1	1.000	0.525	0.975	0.375	Biso	1.000	Al
Al1	1.000	0.575	0.925	0.375	Biso	1.000	Al
Al1	1.000	0.575	0.975	0.350	Biso	1.000	Al
Al1	1.000	0.525	0.925	0.400	Biso	1.000	Al
Al1	1.000	0.525	0.975	0.425	Biso	1.000	Al
Al1	1.000	0.575	0.925	0.425	Biso	1.000	Al
Al1	1.000	0.575	0.975	0.400	Biso	1.000	Al
Al1	1.000	0.525	0.925	0.450	Biso	1.000	Al
Al1	1.000	0.525	0.975	0.475	Biso	1.000	Al
Al1	1.000	0.575	0.925	0.475	Biso	1.000	Al
Al1	1.000	0.575	0.975	0.450	Biso	1.000	Al
Al1	1.000	0.525	0.925	0.500	Biso	1.000	Al
Al1	1.000	0.525	0.975	0.525	Biso	1.000	Al
Al1	1.000	0.575	0.925	0.525	Biso	1.000	Al
Al1	1.000	0.575	0.975	0.500	Biso	1.000	Al
Al1	1.000	0.525	0.925	0.550	Biso	1.000	Al
Al1	1.000	0.525	0.975	0.575	Biso	1.000	Al
Al1	1.000	0.575	0.925	0.575	Biso	1.000	Al
Al1	1.000	0.575	0.975	0.550	Biso	1.000	Al
Al1	1.000	0.525	0.925	0.600	Biso	1.000	Al
Al1	1.000	0.525	0.975	0.625	Biso	1.000	Al
Al1	1.000	0.575	0.925	0.625	Biso	1.000	Al
Al1	1.000	0.575	0.975	0.600	Biso	1.000	Al
Al1	1.000	0.525	0.925	0.650	Biso	1.000	Al
Al1	1.000	0.525	0.975	0.675	Biso	1.000	Al
Al1	1.000	0.575	0.925	0.675	Biso	1.000	Al
Al1	1.000	0.575	0.975	0.650	Biso	1.000	Al
Al1	1.000	0.525	0.925	0.700	Biso	1.000	Al
Al1	1.000	0.525	0.975	0.725	Biso	1.000	Al
Al1	1.000	0.575	0.925	0.725	Biso	1.000	Al
Al1	1.000	0.575	0.975	0.700	Biso	1.000	Al
Al1	1.000	0.525	0.925	0.750	Biso	1.000	Al
Al1	1.000	0.525	0.975	0.775	Biso	1.000	Al
Al1	1.000	0.575	0.925	0.775	Biso	1.000	Al
Al1	1.000	0.575	0.975	0.750	Biso	1.000	Al
Al1	1.000	0.525	0.925	0.800	Biso	1.000	Al
Al1	1.000	0.525	0.975	0.825	Biso	1.000	Al
Al1	1.000	0.575	0.925	0.825	Biso	1.000	Al
Al1	1.000	0.575	0.975	0.800	Biso	1.000	Al
Al1	1.000	0.525	0.925	0.850	Biso	1.000	Al
Al1	1.000	0.525	0.975	0.875	Biso	1.000	Al
Al1	1.000	0.575	0.925	0.875	Biso	1.000	Al
Al1	1.000	0.575	0.975	0.850	Biso	1.000	Al
Al1	1.000	0.525	0.925	0.900	Biso	1.000	Al
Al1	1.000	0.525	0.975	0.925	Biso	1.000	Al
Al1	1.000	0.575	0.925	0.925	Biso	1.000	Al
Al1	1.000	0.575	0.975	0.900	Biso	1.000	Al
Al1	1.000	0.525	0.925	0.950	Biso	1.000	Al
Al1	1.000	0.525	0.975	0.975	Biso	1.000	Al
Al1	1.000	0.575	0.925	0.975	Biso	1.000	Al
Al1	1.000	0.575	0.975	0.950	Biso	1.000	Al
Al1	1.000	0.625	0.025	0.000	Biso	1.000	Al
Al1	1.000	0.625	0.075	0.025	Biso	1.000	Al
Al1	1.000	0.675	0.025	0.025	Biso	1.000	Al
Al1	1.000	0.675	0.075	0.000	Biso	1.000	Al
Al1	1.000	0.625	0.025	0.050	Biso	1.000	Al
Al1	1.000	0.625	0.075	0.075	Biso	1.000	Al
Al1	1.000	0.675	0.025	0.075	Biso	1.000	Al
Al1	1.000	0.675	0.075	0.050	Biso	1.000	Al
Al1	1.000	0.625	0.025	0.100	Biso	1.000	Al
Al1	1.000	0.625	0.075	0.125	Biso	1.000	Al
Al1	1.000	0.675	0.025	0.125	Biso	1.000	Al
Al1	1.000	0.675	0.075	0.100	Biso	1.000	Al
Al1	1.000	0.625	0.025	0.150	Biso	1.000	Al
Al1	1.000	0.625	0.075	0.175	Biso	1.000	Al
Al1	1.000	0.675	0.025	0.175	Biso	1.000	Al
Al1	1.000	0.675	0.075	0.150	Biso	1.000	Al
Al1	1.000	0.625	0.025	0.200	Biso	1.000	Al
Al1	1.000	0.625	0.075	0.225	Biso	1.000	Al
Al1	1.000	0.675	0.025	0.225	Biso	1.000	Al
Al1	1.000	0.675	0.075	0.200	Biso	1.000	Al
Al1	1.000	0.625	0.025	0.250	Biso	1.000	Al
Al1	1.000	0.625	0.075	0.275	Biso	1.000	Al
Al1	1.000	0.675	0.025	0.275	Biso	1.000	Al
Al1	1.000	0.675	0.075	0.250	Biso	1.000	Al
Al1	1.000	0.625	0.025	0.300	Biso	1.000	Al
Al1	1.000	0.625	0.075	0.325	Biso	1.000	Al
Al1	1.000	0.675	0.025	0.325	Biso	1.000	Al
Al1	1.000	0.675	0.075	0.300	Biso	1.000	Al
Al1	1.000	0.625	0.025	0.350	Biso	1.000	Al
Al1	1.000	0.625	0.075	0.375	Biso	1.000	Al
Al1	1.000	0.675	0.025	0.375	Biso	1.000	Al
Al1	1.000	0.675	0.075	0.350	Biso	1.000	Al
Al1	1.000	0.625	0.025	0.400	Biso	1.000	Al
Al1	1.000	0.625	0.075	0.425	Biso	1.000	Al
Al1	1.000	0.675	0.025	0.425	Biso	1.000	Al
Al1	1.000	0.675	0.075	0.400	Biso	1.000	Al
Al1	1.000	0.625	0.025	0.450	Biso	1.000	Al
Al1	1.000	0.625	0.075	0.475	Biso	1.000	Al
Al1	1.000	0.675	0.025	0.475	Biso	1.000	Al
Al1	1.000	0.675	0.075	0.450	Biso	1.000	Al
Al1	1.000	0.625	0.025	0.500	Biso	1.000	Al
Al1	1.000	0.625	0.075	0.525	Biso	1.000	Al
Al1	1.000	0.675	0.025	0.525	Biso	1.000	Al
Al1	1.000	0.675	0.075	0.500	Biso	1.000	Al
Al1	1.000	0.625	0.025	0.550	Biso	1.000	Al
Al1	1.000	0.625	0.075	0.575	Biso	1.000	Al
Al1	1.000	0.675	0.025	0.575	Biso	1.000	Al
Al1	1.000	0.675	0.075	0.550	Biso	1.000	Al
Al1	1.000	0.625	0.025	0.600	Biso	1.000	Al
Al1	1.000	0.625	0.075	0.625	Biso	1.000	Al
Al1	1.000	0.675	0.025	0.625	Biso	1.000	Al
Al1	1.000	0.675	0.075	0.600	Biso	1.000	Al
Al1	1.000	0.625	0.025	0.650	Biso	1.000	Al
Al1	1.000	0.625	0.075	0.675	Biso	1.000	Al
Al1	1.000	0.675	0.025	0.675	Biso	1.000	Al
Al1	1.000	0.675	0.075	0.650	Biso	1.000	Al
Al1	1.000	0.625	0.025	0.700	Biso	1.000	Al
Al1	1.000	0.625	0.075	0.725	Biso	1.000	Al
Al1	1.000	0.675	0.025	0.725	Biso	1.000	Al
Al1	1.000	0.675	0.075	0.700	Biso	1.000	Al
Al1	1.000	0.625	0.025	0.750	Biso	1.000	Al
Al1	1.000	0.625	0.075	0.775	Biso	1.000	Al
Al1	1.000	0.675	0.025	0.775	Biso	1.000	Al
Al1	1.000	0.675	0.075	0.750	Biso	1.000	Al
Al1	1.000	0.625	0.025	0.800	Biso	1.000	Al
Al1	1.000	0.625	0.075	0.825	Biso	1.000	Al
Al1	1.000	0.675	0.025	0.825	Biso	1.000	Al
Al1	1.000	0.675	0.075	0.800	Biso	1.000	Al
Al1	1.000	0.625	0.025	0.850	Biso	1.000	Al
Al1	1.000	0.625	0.075	0.875	Biso	1.000	Al
Al1	1.000	0.675	0.025	0.875	Biso	1.000	Al
Al1	1.000	0.675	0.075	0.850	Biso	1.000	Al
Al1	1.000	0.625	0.025	0.900	Biso	1.000	Al
Al1	1.000	0.625	0.075	0.925	Biso	1.000	Al
Al1	1.000	0.675	0.025	0.925	Biso	1.000	Al
Al1	1.000	0.675	0.075	0.900	Biso	1.000	Al
Al1	1.000	0.625	0.025	0.950	Biso	1.000	Al
Al1	1.000	0.625	0.075	0.975	Biso	1.000	Al
Al1	1.000	0.675	0.025	0.975	Biso	1.000	Al
Al1	1.000	0.675	0.075	0.950	Biso	1.000	Al
Al1	1.000	0.625	0.125	0.000	Biso	1.000	Al
Al1	1.000	0.625	0.175	0.025	Biso	1.000	Al
Al1	1.000	0.675	0.125	0.025	Biso	1.000	Al
Al1	1.000	0.675	0.175	0.000	Biso	1.000	Al
Al1	1.000	0.625	0.125	0.050	Biso	1.000	Al
Al1	1.000	0.625	0.175	0.075	Biso	1.000	Al
Al1	1.000	0.675	0.125	0.075	Biso	1.000	Al
Al1	1.000	0.675	0.175	0.050	Biso	1.000	Al
Al1	1.000	0.625	0.125	0.100	Biso	1.000	Al
Al1	1.000	0.625	0.175	0.125	Biso	1.000	Al
Al1	1.000	0.675	0.125	0.125	Biso	1.000	Al
Al1	1.000	0.675	0.175	0.100	Biso	1.000	Al
Al1	1.000	0.625	0.125	0.150	Biso	1.000	Al
Al1	1.000	0.625	0.175	0.175	Biso	1.000	Al
Al1	1.000	0.675	0.125	0.175	Biso	1.000	Al
Al1	1.000	0.675	0.175	0.150	Biso	1.000	Al
Al1	1.000	0.625	0.125	0.200	Biso	1.000	Al
Al1	1.000	0.625	0.175	0.225	Biso	1.000	Al
Al1	1.000	0.675	0.125	0.225	Biso	1.000	Al
Al1	1.000	0.675	0.175	0.200	Biso	1.000	Al
Al1	1.000	0.625	0.125	0.250	Biso	1.000	Al
Al1	1.000	0.625	0.175	0.275	Biso	1.000	Al
Al1	1.000	0.675	0.125	0.275	Biso	1.000	Al
Al1	1.000	0.675	0.175	0.250	Biso	1.000	Al
Al1	1.000	0.625	0.125	0.300	Biso	1.000	Al
Al1	1.000	0.625	0.175	0.325	Biso	1.000	Al
Al1	1.000	0.675	0.125	0.325	Biso	1.000	Al
Al1	1.000	0.675	0.175	0.300	Biso	1.000	Al
Al1	1.000	0.625	0.125	0.350	Biso	1.000	Al
Al1	1.000	0.625	0.175	0.375	Biso	1.000	Al
Al1	1.000	0.675	0.125	0.375	Biso	1.000	Al
Al1	1.000	0.675	0.175	0.350	Biso	1.000	Al
Al1	1.000	0.625	0.125	0.400	Biso	1.000	Al
Al1	1.000	0.625	0.175	0.425	Biso	1.000	Al
Al1	1.000	0.675	0.125	0.425	Biso	1.000	Al
Al1	1.000	0.675	0.175	0.400	Biso	1.000	Al
Al1	1.000	0.625	0.125	0.450	Biso	1.000	Al
Al1	1.000	0.625	0.175	0.475	Biso	1.000	Al
Al1	1.000	0.675	0.125	0.475	Biso	1.000	Al
Al1	1.000	0.675	0.175	0.450	Biso	1.000	Al
Al1	1.000	0.625	0.125	0.500	Biso	1.000	Al
Al1	1.000	0.625	0.175	0.525	Biso	1.000	Al
Al1	1.000	0.675	0.125	0.525	Biso	1.000	Al
Al1	1.000	0.675	0.175	0.500	Biso	1.000	Al
Al1	1.000	0.625	0.125	0.550	Biso	1.000	Al
Al1	1.000	0.625	0.175	0.575	Biso	1.000	Al
Al1	1.000	0.675	0.125	0.575	Biso	1.000	Al
Al1	1.000	0.675	0.175	0.550	Biso	1.000	Al
Al1	1.000	0.625	0.125	0.600	Biso	1.000	Al
Al1	1.000	0.625	0.175	0.625	Biso	1.000	Al
Al1	1.000	0.675	0.125	0.625	Biso	1.000	Al
Al1	1.000	0.675	0.175	0.600	Biso	1.000	Al
Al1	1.000	0.625	0.125	0.650	Biso	1.000	Al
Al1	1.000	0.625	0.175	0.675	Biso	1.000	Al
Al1	1.000	0.675	0.125	0.675	Biso	1.000	Al
Al1	1.000	0.675	0.175	0.650	Biso	1.000	Al
Al1	1.000	0.625	0.125	0.700	Biso	1.000	Al
Al1	1.000	0.625	0.175	0.725	Biso	1.000	Al
Al1	1.000	0.675	0.125	0.725	Biso	1.000	Al
Al1	1.000	0.675	0.175	0.700	Biso	1.000	Al
Al1	1.000	0.625	0.125	0.750	Biso	1.000	Al
Al1	1.000	0.625	0.175	0.775	Biso	1.000	Al
Al1	1.000	0.675	0.125	0.775	Biso	1.000	Al
Al1	1.000	0.675	0.175	0.750	Biso	1.000	Al
Al1	1.000	0.625	0.125	0.800	Biso	1.000	Al
Al1	1.000	0.625	0.175	0.825	Biso	1.000	Al
Al1	1.000	0.675	0.125	0.825	Biso	1.000	Al
Al1	1.000	0.675	0.175	0.800	Biso	1.000	Al
Al1	1.000	0.625	0.125	0.850	Biso	1.000	Al
Al1	1.000	0.625	0.175	0.875	Biso	1.000	Al
Al1	1.000	0.675	0.125	0.875	Biso	1.000	Al
Al1	1.000	0.675	0.175	0.850	Biso	1.000	Al
Al1	1.000	0.625	0.125	0.900	Biso	1.000	Al
Al1	1.000	0.625	0.175	0.925	Biso	1.000	Al
Al1	1.000	0.675	0.125	0.925	Biso	1.000	Al
Al1	1.000	0.675	0.175	0.900	Biso	1.000	Al
Al1	1.000	0.625	0.125	0.950	Biso	1.000	Al
Al1	1.000	0.625	0.175	0.975	Biso	1.000	Al
Al1	1.000	0.675	0.125	0.975	Biso	1.000	Al
Al1	1.000	0.675	0.175	0.950	Biso	1.000	Al
Al1	1.000	0.625	0.225	0.000	Biso	1.000	Al
Al1	1.000	0.625	0.275	0.025	Biso	1.000	Al
Al1	1.000	0.675	0.225	0.025	Biso	1.000	Al
Al1	1.000	0.675	0.275	0.000	Biso	1.000	Al
Al1	1.000	0.625	0.225	0.050	Biso	1.000	Al
Al1	1.000	0.625	0.275	0.075	Biso	1.000	Al
Al1	1.000	0.675	0.225	0.075	Biso	1.000	Al
Al1	1.000	0.675	0.275	0.050	Biso	1.000	Al
Al1	1.000	0.625	0.225	0.100	Biso	1.000	Al
Al1	1.000	0.625	0.275	0.125	Biso	1.000	Al
Al1	1.000	0.675	0.225	0.125	Biso	1.000	Al
Al1	1.000	0.675	0.275	0.100	Biso	1.000	Al
Al1	1.000	0.625	0.225	0.150	Biso	1.000	Al
Al1	1.000	0.625	0.275	0.175	Biso	1.000	Al
Al1	1.000	0.675	0.225	0.175	Biso	1.000	Al
Al1	1.000	0.675	0.275	0.150	Biso	1.000	Al
Al1	1.000	0.625	0.225	0.200	Biso	1.000	Al
Al1	1.000	0.625	0.275	0.225	Biso	1.000	Al
Al1	1.000	0.675	0.225	0.225	Biso	1.000	Al
Al1	1.000	0.675	0.275	0.200	Biso	1.000	Al
Al1	1.000	0.625	0.225	0.250	Biso	1.000	Al
Al1	1.000	0.625	0.275	0.275	Biso	1.000	Al
Al1	1.000	0.675	0.225	0.275	Biso	1.000	Al
Al1	1.000	0.675	0.275	0.250	Biso	1.000	Al
Al1	1.000	0.625	0.225	0.300	Biso	1.000	Al
Al1	1.000	0.625	0.275	0.325	Biso	1.000	Al
Al1	1.000	0.675	0.225	0.325	Biso	1.000	Al
Al1	1.000	0.675	0.275	0.300	Biso	1.000	Al
Al1	1.000	0.625	0.225	0.350	Biso	1.000	Al
Al1	1.000	0.625	0.275	0.375	Biso	1.000	Al
Al1	1.000	0.675	0.225	0.375	Biso	1.000	Al
Al1	1.000	0.675	0.275	0.350	Biso	1.000	Al
Al1	1.000	0.625	0.225	0.400	Biso	1.000	Al
Al1	1.000	0.625	0.275	0.425	Biso	1.000	Al
Al1	1.000	0.675	0.225	0.425	Biso	1.000	Al
Al1	1.000	0.675	0.275	0.400	Biso	1.000	Al
Al1	1.000	0.625	0.225	0.450	Biso	1.000	Al
Al1	1.000	0.625	0.275	0.475	Biso	1.000	Al
Al1	1.000	0.675	0.225	0.475	Biso	1.000	Al
Al1	1.000	0.675	0.275	0.450	Biso	1.000	Al
Al1	1.000	0.625	0.225	0.500	Biso	1.000	Al
Al1	1.000	0.625	0.275	0.525	Biso	1.000	Al
Al1	1.000	0.675	0.225	0.525	Biso	1.000	Al
Al1	1.000	0.675	0.275	0.500	Biso	1.000	Al
Al1	1.000	0.625	0.225	0.550	Biso	1.000	Al
Al1	1.000	0.625	0.275	0.575	Biso	1.000	Al
Al1	1.000	0.675	0.225	0.575	Biso	1.000	Al
Al1	1.000	0.675	0.275	0.550	Biso	1.000	Al
Al1	1.000	0.625	0.225	0.600	Biso	1.000	Al
Al1	1.000	0.625	0.275	0.625	Biso	1.000	Al
Al1	1.000	0.675	0.225	0.625	Biso	1.000	Al
Al1	1.000	0.675	0.275	0.600	Biso	1.000	Al
Al1	1.000	0.625	0.225	0.650	Biso	1.000	Al
Al1	1.000	0.625	0.275	0.675	Biso	1.000	Al
Al1	1.000	0.675	0.225	0.675	Biso	1.000	Al
Al1	1.000	0.675	0.275	0.650	Biso	1.000	Al
Al1	1.000	0.625	0.225	0.700	Biso	1.000	Al
Al1	1.000	0.625	0.275	0.725	Biso	1.000	Al
Al1	1.000	0.675	0.225	0.725	Biso	1.000	Al
Al1	1.000	0.675	0.275	0.700	Biso	1.000	Al
Al1	1.000	0.625	0.225	0.750	Biso	1.000	Al
Al1	1.000	0.625	0.275	0.775	Biso	1.000	Al
Al1	1.000	0.675	0.225	0.775	Biso	1.000	Al
Al1	1.000	0.675	0.275	0.750	Biso	1.000	Al
Al1	1.000	0.625	0.225	0.800	Biso	1.000	Al
Al1	1.000	0.625	0.275	0.825	Biso	1.000	Al
Al1	1.000	0.675	0.225	0.825	Biso	1.000	Al
Al1	1.000	0.675	0.275	0.800	Biso	1.000	Al
Al1	1.000	0.625	0.225	0.850	Biso	1.000	Al
Al1	1.000	0.625	0.275	0.875	Biso	1.000	Al
Al1	1.000	0.675	0.225	0.875	Biso	1.000	Al
Al1	1.000	0.675	0.275	0.850	Biso	1.000	Al
Al1	1.000	0.625	0.225	0.900	Biso	1.000	Al
Al1	1.000	0.625	0.275	0.925	Biso	1.000	Al
Al1	1.000	0.675	0.225	0.925	Biso	1.000	Al
Al1	1.000	0.675	0.275	0.900	Biso	1.000	Al
Al1	1.000	0.625	0.225	0.950	Biso	1.000	Al
Al1	1.000	0.625	0.275	0.975	Biso	1.000	Al
Al1	1.000	0.675	0.225	0.975	Biso	1.000	Al
Al1	1.000	0.675	0.275	0.950	Biso	1.000	Al
Al1	1.000	0.625	0.325	0.000	Biso	1.000	Al
Al1	1.000	0.625	0.375	0.025	Biso	1.000	Al
Al1	1.000	0.675	0.325	0.025	Biso	1.000	Al
Al1	1.000	0.675	0.375	0.000	Biso	1.000	Al
Al1	1.000	0.625	0.325	0.050	Biso	1.000	Al
Al1	1.000	0.625	0.375	0.075	Biso	1.000	Al
Al1	1.000	0.675	0.325	0.075	Biso	1.000	Al
Al1	1.000	0.675	0.375	0.050	Biso	1.000	Al
Al1	1.000	0.625	0.325	0.100	Biso	1.000	Al
Al1	1.000	0.625	0.375	0.125	Biso	1.000	Al
Al1	1.000	0.675	0.325	0.125	Biso	1.000	Al
Al1	1.000	0.675	0.375	0.100	Biso	1.000	Al
Al1	1.000	0.625	0.325	0.150	Biso	1.000	Al
Al1	1.000	0.625	0.375	0.175	Biso	1.000	Al
Al1	1.000	0.675	0.325	0.175	Biso	1.000	Al
Al1	1.000	0.675	0.375	0.150	Biso	1.000	Al
Al1	1.000	0.625	0.325	0.200	Biso	1.000	Al
Al1	1.000	0.625	0.375	0.225	Biso	1.000	Al
Al1	1.000	0.675	0.325	0.225	Biso	1.000	Al
Al1	1.000	0.675	0.375	0.200	Biso	1.000	Al
Al1	1.000	0.625	0.325	0.250	Biso	1.000	Al
Al1	1.000	0.625	0.375	0.275	Biso	1.000	Al
Al1	1.000	0.675	0.325	0.275	Biso	1.000	Al
Al1	1.000	0.675	0.375	0.250	Biso	1.000	Al
Al1	1.000	0.625	0.325	0.300	Biso	1.000	Al
Al1	1.000	0.625	0.375	0.325	Biso	1.000	Al
Al1	1.000	0.675	0.325	0.325	Biso	1.000	Al
Al1	1.000	0.675	0.375	0.300	Biso	1.000	Al
Al1	1.000	0.625	0.325	0.350	Biso	1.000	Al
Al1	1.000	0.625	0.375	0.375	Biso	1.000	Al
Al1	1.000	0.675	0.325	0.375	Biso	1.000	Al
Al1	1.000	0.675	0.375	0.350	Biso	1.000	Al
Al1	1.000	0.625	0.325	0.400	Biso	1.000	Al
Al1	1.000	0.625	0.375	0.425	Biso	1.000	Al
Al1	1.000	0.675	0.325	0.425	Biso	1.000	Al
Al1	1.000	0.675	0.375	0.400	Biso	1.000	Al
Al1	1.000	0.625	0.325	0.450	Biso	1.000	Al
Al1	1.000	0.625	0.375	0.475	Biso	1.000	Al
Al1	1.000	0.675	0.325	0.475	Biso	1.000	Al
Al1	1.000	0.675	0.375	0.450	Biso	1.000	Al
Al1	1.000	0.625	0.325	0.500	Biso	1.000	Al
Al1	1.000	0.625	0.375	0.525	Biso	1.000	Al
Al1	1.000	0.675	0.325	0.525	Biso	1.000	Al
Al1	1.000	0.675	0.375	0.500	Biso	1.000	Al
Al1	1.000	0.625	0.325	0.550	Biso	1.000	Al
Al1	1.000	0.625	0.375	0.575	Biso	1.000	Al
Al1	1.000	0.675	0.325	0.575	Biso	1.000	Al
Al1	1.000	0.675	0.375	0.550	Biso	1.000	Al
Al1	1.000	0.625	0.325	0.600	Biso	1.000	Al
Al1	1.000	0.625	0.375	0.625	Biso	1.000	Al
Al1	1.000	0.675	0.325	0.625	Biso	1.000	Al
Al1	1.000	0.675	0.375	0.600	Biso	1.000	Al
Al1	1.000	0.625	0.325	0.650	Biso	1.000	Al
Al1	1.000	0.625	0.375	0.675	Biso	1.000	Al
Al1	1.000	0.675	0.325	0.675	Biso	1.000	Al
Al1	1.000	0.675	0.375	0.650	Biso	1.000	Al
Al1	1.000	0.625	0.325	0.700	Biso	1.000	Al
Al1	1.000	0.625	0.375	0.725	Biso	1.000	Al
Al1	1.000	0.675	0.325	0.725	Biso	1.000	Al
Al1	1.000	0.675	0.375	0.700	Biso	1.000	Al
Al1	1.000	0.625	0.325	0.750	Biso	1.000	Al
Al1	1.000	0.625	0.375	0.775	Biso	1.000	Al
Al1	1.000	0.675	0.325	0.775	Biso	1.000	Al
Al1	1.000	0.675	0.375	0.750	Biso	1.000	Al
Al1	1.000	0.625	0.325	0.800	Biso	1.000	Al
Al1	1.000	0.625	0.375	0.825	Biso	1.000	Al
Al1	1.000	0.675	0.325	0.825	Biso	1.000	Al
Al1	1.000	0.675	0.375	0.800	Biso	1.000	Al
Al1	1.000	0.625	0.325	0.850	Biso	1.000	Al
Al1	1.000	0.625	0.375	0.875	Biso	1.000	Al
Al1	1.000	0.675	0.325	0.875	Biso	1.000	Al
Al1	1.000	0.675	0.375	0.850	Biso	1.000	Al
Al1	1.000	0.625	0.325	0.900	Biso	1.000	Al
Al1	1.000	0.625	0.375	0.925	Biso	1.000	Al
Al1	1.000	0.675	0.325	0.925	Biso	1.000	Al
Al1	1.000	0.675	0.375	0.900	Biso	1.000	Al
Al1	1.000	0.625	0.325	0.950	Biso	1.000	Al
Al1	1.000	0.625	0.375	0.975	Biso	1.000	Al
Al1	1.000	0.675	0.325	0.975	Biso	1.000	Al
Al1	1.000	0.675	0.375	0.950	Biso	1.000	Al
Al1	1.000	0.625	0.425	0.000	Biso	1.000	Al
Al1	1.000	0.625	0.475	0.025	Biso	1.000	Al
Al1	1.000	0.675	0.425	0.025	Biso	1.000	Al
Al1	1.000	0.675	0.475	0.000	Biso	1.000	Al
Al1	1.000	0.625	0.425	0.050	Biso	1.000	Al
Al1	1.000	0.625	0.475	0.075	Biso	1.000	Al
Al1	1.000	0.675	0.425	0.075	Biso	1.000	Al
Al1	1.000	0.675	0.475	0.050	Biso	1.000	Al
Al1	1.000	0.625	0.425	0.100	Biso	1.000	Al
Al1	1.000	0.625	0.475	0.125	Biso	1.000	Al
Al1	1.000	0.675	0.425	0.125	Biso	1.000	Al
Al1	1.000	0.675	0.475	0.100	Biso	1.000	Al
Al1	1.000	0.625	0.425	0.150	Biso	1.000	Al
Al1	1.000	0.625	0.475	0.175	Biso	1.000	Al
Al1	1.000	0.675	0.425	0.175	Biso	1.000	Al
Al1	1.000	0.675	0.475	0.150	Biso	1.000	Al
Al1	1.000	0.625	0.425	0.200	Biso	1.000	Al
Al1	1.000	0.625	0.475	0.225	Biso	1.000	Al
Al1	1.000	0.675	0.425	0.225	Biso	1.000	Al
Al1	1.000	0.675	0.475	0.200	Biso	1.000	Al
Al1	1.000	0.625	0.425	0.250	Biso	1.000	Al
Al1	1.000	0.625	0.475	0.275	Biso	1.000	Al
Al1	1.000	0.675	0.425	0.275	Biso	1.000	Al
Al1	1.000	0.675	0.475	0.250	Biso	1.000	Al
Al1	1.000	0.625	0.425	0.300	Biso	1.000	Al
Al1	1.000	0.625	0.475	0.325	Biso	1.000	Al
Al1	1.000	0.675	0.425	0.325	Biso	1.000	Al
Al1	1.000	0.675	0.475	0.300	Biso	1.000	Al
Al1	1.000	0.625	0.425	0.350	Biso	1.000	Al
Al1	1.000	0.625	0.475	0.375	Biso	1.000	Al
Al1	1.000	0.675	0.425	0.375	Biso	1.000	Al
Al1	1.000	0.675	0.475	0.350	Biso	1.000	Al
Al1	1.000	0.625	0.425	0.400	Biso	1.000	Al
Al1	1.000	0.625	0.475	0.425	Biso	1.000	Al
Al1	1.000	0.675	0.425	0.425	Biso	1.000	Al
Al1	1.000	0.675	0.475	0.400	Biso	1.000	Al
Al1	1.000	0.625	0.425	0.450	Biso	1.000	Al
Al1	1.000	0.625	0.475	0.475	Biso	1.000	Al
Al1	1.000	0.675	0.425	0.475	Biso	1.000	Al
Al1	1.000	0.675	0.475	0.450	Biso	1.000	Al
Al1	1.000	0.625	0.425	0.500	Biso	1.000	Al
Al1	1.000	0.625	0.475	0.525	Biso	1.000	Al
Al1	1.000	0.675	0.425	0.525	Biso	1.000	Al
Al1	1.000	0.675	0.475	0.500	Biso	1.000	Al
Al1	1.000	0.625	0.425	0.550	Biso	1.000	Al
Al1	1.000	0.625	0.475	0.575	Biso	1.000	Al
Al1	1.000	0.675	0.425	0.575	Biso	1.000	Al
Al1	1.000	0.675	0.475	0.550	Biso	1.000	Al
Al1	1.000	0.625	0.425	0.600	Biso	1.000	Al
Al1	1.000	0.625	0.475	0.625	Biso	1.000	Al
Al1	1.000	0.675	0.425	0.625	Biso	1.000	Al
Al1	1.000	0.675	0.475	0.600	Biso	1.000	Al
Al1	1.000	0.625	0.425	0.650	Biso	1.000	Al
Al1	1.000	0.625	0.475	0.675	Biso	1.000	Al
Al1	1.000	0.675	0.425	0.675	Biso	1.000	Al
Al1	1.000	0.675	0.475	0.650	Biso	1.000	Al
Al1	1.000	0.625	0.425	0.700	Biso	1.000	Al
Al1	1.000	0.625	0.475	0.725	Biso	1.000	Al
Al1	1.000	0.675	0.425	0.725	Biso	1.000	Al
Al1	1.000	0.675	0.475	0.700	Biso	1.000	Al
Al1	1.000	0.625	0.425	0.750	Biso	1.000	Al
Al1	1.000	0.625	0.475	0.775	Biso	1.000	Al
Al1	1.000	0.675	0.425	0.775	Biso	1.000	Al
Al1	1.000	0.675	0.475	0.750	Biso	1.000	Al
Al1	1.000	0.625	0.425	0.800	Biso	1.000	Al
Al1	1.000	0.625	0.475	0.825	Biso	1.000	Al
Al1	1.000	0.675	0.425	0.825	Biso	1.000	Al
Al1	1.000	0.675	0.475	0.800	Biso	1.000	Al
Al1	1.000	0.625	0.425	0.850	Biso	1.000	Al
Al1	1.000	0.625	0.475	0.875	Biso	1.000	Al
Al1	1.000	0.675	0.425	0.875	Biso	1.000	Al
Al1	1.000	0.675	0.475	0.850	Biso	1.000	Al
Al1	1.000	0.625	0.425	0.900	Biso	1.000	Al
Al1	1.000	0.625	0.475	0.925	Biso	1.000	Al
Al1	1.000	0.675	0.425	0.925	Biso	1.000	Al
Al1	1.000	0.675	0.475	0.900	Biso	1.000	Al
Al1	1.000	0.625	0.425	0.950	Biso	1.000	Al
Al1	1.000	0.625	0.475	0.975	Biso	1.000	Al
Al1	1.000	0.675	0.425	0.975	Biso	1.000	Al
Al1	1.000	0.675	0.475	0.950	Biso	1.000	Al
Al1	1.000	0.625	0.525	0.000	Biso	1.000	Al
Al1	1.000	0.625	0.575	0.025	Biso	1.000	Al
Al1	1.000	0.675	0.525	0.025	Biso	1.000	Al
Al1	1.000	0.675	0.575	0.000	Biso	1.000	Al
Al1	1.000	0.625	0.525	0.050	Biso	1.000	Al
Al1	1.000	0.625	0.575	0.075	Biso	1.000	Al
Al1	1.000	0.675	0.525	0.075	Biso	1.000	Al
Al1	1.000	0.675	0.575	0.050	Biso	1.000	Al
Al1	1.000	0.625	0.525	0.100	Biso	1.000	Al
Al1	1.000	0.625	0.575	0.125	Biso	1.000	Al
Al1	1.000	0.675	0.525	0.125	Biso	1.000	Al
Al1	1.000	0.675	0.575	0.100	Biso	1.000	Al
Al1	1.000	0.625	0.525	0.150	Biso	1.000	Al
Al1	1.000	0.625	0.575	0.175	Biso	1.000	Al
Al1	1.000	0.675	0.525	0.175	Biso	1.000	Al
Al1	1.000	0.675	0.575	0.150	Biso	1.000	Al
Al1	1.000	0.625	0.525	0.200	Biso	1.000	Al
Al1	1.000	0.625	0.575	0.225	Biso	1.000	Al
Al1	1.000	0.675	0.525	0.225	Biso	1.000	Al
Al1	1.000	0.675	0.575	0.200	Biso	1.000	Al
Al1	1.000	0.625	0.525	0.250	Biso	1.000	Al
Al1	1.000	0.625	0.575	0.275	Biso	1.000	Al
Al1	1.000	0.675	0.525	0.275	Biso	1.000	Al
Al1	1.000	0.675	0.575	0.250	Biso	1.000	Al
Al1	1.000	0.625	0.525	0.300	Biso	1.000	Al
Al1	1.000	0.625	0.575	0.325	Biso	1.000	Al
Al1	1.000	0.675	0.525	0.325	Biso	1.000	Al
Al1	1.000	0.675	0.575	0.300	Biso	1.000	Al
Al1	1.000	0.625	0.525	0.350	Biso	1.000	Al
Al1	1.000	0.625	0.575	0.375	Biso	1.000	Al
Al1	1.000	0.675	0.525	0.375	Biso	1.000	Al
Al1	1.000	0.675	0.575	0.350	Biso	1.000	Al
Al1	1.000	0.625	0.525	0.400	Biso	1.000	Al
Al1	1.000	0.625	0.575	0.425	Biso	1.000	Al
Al1	1.000	0.675	0.525	0.425	Biso	1.000	Al
Al1	1.000	0.675	0.575	0.400	Biso	1.000	Al
Al1	1.000	0.625	0.525	0.450	Biso	1.000	Al
Al1	1.000	0.625	0.575	0.475	Biso	1.000	Al
Al1	1.000	0.675	0.525	0.475	Biso	1.000	Al
Al1	1.000	0.675	0.575	0.450	Biso	1.000	Al
Al1	1.000	0.625	0.525	0.500	Biso	1.000	Al
Al1	1.000	0.625	0.575	0.525	Biso	1.000	Al
Al1	1.000	0.675	0.525	0.525	Biso	1.000	Al
Al1	1.000	0.675	0.575	0.500	Biso	1.000	Al
Al1	1.000	0.625	0.525	0.550	Biso	1.000	Al
Al1	1.000	0.625	0.575	0.575	Biso	1.000	Al
Al1	1.000	0.675	0.525	0.575	Biso	1.000	Al
Al1	1.000	0.675	0.575	0.550	Biso	1.000	Al
Al1	1.000	0.625	0.525	0.600	Biso	1.000	Al
Al1	1.000	0.625	0.575	0.625	Biso	1.000	Al
Al1	1.000	0.675	0.525	0.625	Biso	1.000	Al
Al1	1.000	0.675	0.575	0.600	Biso	1.000	Al
Al1	1.000	0.625	0.525	0.650	Biso	1.000	Al
Al1	1.000	0.625	0.575	0.675	Biso	1.000	Al
Al1	1.000	0.675	0.525	0.675	Biso	1.000	Al
Al1	1.000	0.675	0.575	0.650	Biso	1.000	Al
Al1	1.000	0.625	0.525	0.700	Biso	1.000	Al
Al1	1.000	0.625	0.575	0.725	Biso	1.000	Al
Al1	1.000	0.675	0.525	0.725	Biso	1.000	Al
Al1	1.000	0.675	0.575	0.700	Biso	1.000	Al
Al1	1.000	0.625	0.525	0.750	Biso	1.000	Al
Al1	1.000	0.625	0.575	0.775	Biso	1.000	Al
Al1	1.000	0.675	0.525	0.775	Biso	1.000	Al
Al1	1.000	0.675	0.575	0.750	Biso	1.000	Al
Al1	1.000	0.625	0.525	0.800	Biso	1.000	Al
Al1	1.000	0.625	0.575	0.825	Biso	1.000	Al
Al1	1.000	0.675	0.525	0.825	Biso	1.000	Al
Al1	1.000	0.675	0.575	0.800	Biso	1.000	Al
Al1	1.000	0.625	0.525	0.850	Biso	1.000	Al
Al1	1.000	0.625	0.575	0.875	Biso	1.000	Al
Al1	1.000	0.675	0.525	0.875	Biso	1.000	Al
Al1	1.000	0.675	0.575	0.850	Biso	1.000	Al
Al1	1.000	0.625	0.525	0.900	Biso	1.000	Al
Al1	1.000	0.625	0.575	0.925	Biso	1.000	Al
Al1	1.000	0.675	0.525	0.925	Biso	1.000	Al
Al1	1.000	0.675	0.575	0.900	Biso	1.000	Al
Al1	1.000	0.625	0.525	0.950	Biso	1.000	Al
Al1	1.000	0.625	0.575	0.975	Biso	1.000	Al
Al1	1.000	0.675	0.525	0.975	Biso	1.000	Al
Al1	1.000	0.675	0.575	0.950	Biso	1.000	Al
Al1	1.000	0.625	0.625	0.000	Biso	1.000	Al
Al1	1.000	0.625	0.675	0.025	Biso	1.000	Al
Al1	1.000	0.675	0.625	0.025	Biso	1.000	Al
Al1	1.000	0.675	0.675	0.000	Biso	1.000	Al
Al1	1.000	0.625	0.625	0.050	Biso	1.000	Al
Al1	1.000	0.625	0.675	0.075	Biso	1.000	Al
Al1	1.000	0.675	0.625	0.075	Biso	1.000	Al
Al1	1.000	0.675	0.675	0.050	Biso	1.000	Al
Al1	1.000	0.625	0.625	0.100	Biso	1.000	Al
Al1	1.000	0.625	0.675	0.125	Biso	1.000	Al
Al1	1.000	0.675	0.625	0.125	Biso	1.000	Al
Al1	1.000	0.675	0.675	0.100	Biso	1.000	Al
Al1	1.000	0.625	0.625	0.150	Biso	1.000	Al
Al1	1.000	0.625	0.675	0.175	Biso	1.000	Al
Al1	1.000	0.675	0.625	0.175	Biso	1.000	Al
Al1	1.000	0.675	0.675	0.150	Biso	1.000	Al
Al1	1.000	0.625	0.625	0.200	Biso	1.000	Al
Al1	1.000	0.625	0.675	0.225	Biso	1.000	Al
Al1	1.000	0.675	0.625	0.225	Biso	1.000	Al
Al1	1.000	0.675	0.675	0.200	Biso	1.000	Al
Al1	1.000	0.625	0.625	0.250	Biso	1.000	Al
Al1	1.000	0.625	0.675	0.275	Biso	1.000	Al
Al1	1.000	0.675	0.625	0.275	Biso	1.000	Al
Al1	1.000	0.675	0.675	0.250	Biso	1.000	Al
Al1	1.000	0.625	0.625	0.300	Biso	1.000	Al
Al1	1.000	0.625	0.675	0.325	Biso	1.000	Al
Al1	1.000	0.675	0.625	0.325	Biso	1.000	Al
Al1	1.000	0.675	0.675	0.300	Biso	1.000	Al
Al1	1.000	0.625	0.625	0.350	Biso	1.000	Al
Al1	1.000	0.625	0.675	0.375	Biso	1.000	Al
Al1	1.000	0.675	0.625	0.375	Biso	1.000	Al
Al1	1.000	0.675	0.675	0.350	Biso	1.000	Al
Al1	1.000	0.625	0.625	0.400	Biso	1.000	Al
Al1	1.000	0.625	0.675	0.425	Biso	1.000	Al
Al1	1.000	0.675	0.625	0.425	Biso	1.000	Al
Al1	1.000	0.675	0.675	0.400	Biso	1.000	Al
Al1	1.000	0.625	0.625	0.450	Biso	1.000	Al
Al1	1.000	0.625	0.675	0.475	Biso	1.000	Al
Al1	1.000	0.675	0.625	0.475	Biso	1.000	Al
Al1	1.000	0.675	0.675	0.450	Biso	1.000	Al
Al1	1.000	0.625	0.625	0.500	Biso	1.000	Al
Al1	1.000	0.625	0.675	0.525	Biso	1.000	Al
Al1	1.000	0.675	0.625	0.525	Biso	1.000	Al
Al1	1.000	0.675	0.675	0.500	Biso	1.000	Al
Al1	1.000	0.625	0.625	0.550	Biso	1.000	Al
Al1	1.000	0.625	0.675	0.575	Biso	1.000	Al
Al1	1.000	0.675	0.625	0.575	Biso	1.000	Al
Al1	1.000	0.675	0.675	0.550	Biso	1.000	Al
Al1	1.000	0.625	0.625	0.600	Biso	1.000	Al
Al1	1.000	0.625	0.675	0.625	Biso	1.000	Al
Al1	1.000	0.675	0.625	0.625	Biso	1.000	Al
Al1	1.000	0.675	0.675	0.600	Biso	1.000	Al
Al1	1.000	0.625	0.625	0.650	Biso	1.000	Al
Al1	1.000	0.625	0.675	0.675	Biso	1.000	Al
Al1	1.000	0.675	0.625	0.675	Biso	1.000	Al
Al1	1.000	0.675	0.675	0.650	Biso	1.000	Al
Al1	1.000	0.625	0.625	0.700	Biso	1.000	Al
Al1	1.000	0.625	0.675	0.725	Biso	1.000	Al
Al1	1.000	0.675	0.625	0.725	Biso	1.000	Al
Al1	1.000	0.675	0.675	0.700	Biso	1.000	Al
Al1	1.000	0.625	0.625	0.750	Biso	1.000	Al
Al1	1.000	0.625	0.675	0.775	Biso	1.000	Al
Al1	1.000	0.675	0.625	0.775	Biso	1.000	Al
Al1	1.000	0.675	0.675	0.750	Biso	1.000	Al
Al1	1.000	0.625	0.625	0.800	Biso	1.000	Al
Al1	1.000	0.625	0.675	0.825	Biso	1.000	Al
Al1	1.000	0.675	0.625	0.825	Biso	1.000	Al
Al1	1.000	0.675	0.675	0.800	Biso	1.000	Al
Al1	1.000	0.625	0.625	0.850	Biso	1.000	Al
Al1	1.000	0.625	0.675	0.875	Biso	1.000	Al
Al1	1.000	0.675	0.625	0.875	Biso	1.000	Al
Al1	1.000	0.675	0.675	0.850	Biso	1.000	Al
Al1	1.000	0.625	0.625	0.900	Biso	1.000	Al
Al1	1.000	0.625	0.675	0.925	Biso	1.000	Al
Al1	1.000	0.675	0.625	0.925	Biso	1.000	Al
Al1	1.000	0.675	0.675	0.900	Biso	1.000	Al
Al1	1.000	0.625	0.625	0.950	Biso	1.000	Al
Al1	1.000	0.625	0.675	0.975	Biso	1.000	Al
Al1	1.000	0.675	0.625	0.975	Biso	1.000	Al
Al1	1.000	0.675	0.675	0.950	Biso	1.000	Al
Al1	1.000	0.625	0.725	0.000	Biso	1.000	Al
Al1	1.000	0.625	0.775	0.025	Biso	1.000	Al
Al1	1.000	0.675	0.725	0.025	Biso	1.000	Al
Al1	1.000	0.675	0.775	0.000	Biso	1.000	Al
Al1	1.000	0.625	0.725	0.050	Biso	1.000	Al
Al1	1.000	0.625	0.775	0.075	Biso	1.000	Al
Al1	1.000	0.675	0.725	0.075	Biso	1.000	Al
Al1	1.000	0.675	0.775	0.050	Biso	1.000	Al
Al1	1.000	0.625	0.725	0.100	Biso	1.000	Al
Al1	1.000	0.625	0.775	0.125	Biso	1.000	Al
Al1	1.000	0.675	0.725	0.125	Biso	1.000	Al
Al1	1.000	0.675	0.775	0.100	Biso	1.000	Al
Al1	1.000	0.625	0.725	0.150	Biso	1.000	Al
Al1	1.000	0.625	0.775	0.175	Biso	1.000	Al
Al1	1.000	0.675	0.725	0.175	Biso	1.000	Al
Al1	1.000	0.675	0.775	0.150	Biso	1.000	Al
Al1	1.000	0.625	0.725	0.200	Biso	1.000	Al
Al1	1.000	0.625	0.775	0.225	Biso	1.000	Al
Al1	1.000	0.675	0.725	0.225	Biso	1.000	Al
Al1	1.000	0.675	0.775	0.200	Biso	1.000	Al
Al1	1.000	0.625	0.725	0.250	Biso	1.000	Al
Al1	1.000	0.625	0.775	0.275	Biso	1.000	Al
Al1	1.000	0.675	0.725	0.275	Biso	1.000	Al
Al1	1.000	0.675	0.775	0.250	Biso	1.000	Al
Al1	1.000	0.625	0.725	0.300	Biso	1.000	Al
Al1	1.000	0.625	0.775	0.325	Biso	1.000	Al
Al1	1.000	0.675	0.725	0.325	Biso	1.000	Al
Al1	1.000	0.675	0.775	0.300	Biso	1.000	Al
Al1	1.000	0.625	0.725	0.350	Biso	1.000	Al
Al1	1.000	0.625	0.775	0.375	Biso	1.000	Al
Al1	1.000	0.675	0.725	0.375	Biso	1.000	Al
Al1	1.000	0.675	0.775	0.350	Biso	1.000	Al
Al1	1.000	0.625	0.725	0.400	Biso	1.000	Al
Al1	1.000	0.625	0.775	0.425	Biso	1.000	Al
Al1	1.000	0.675	0.725	0.425	Biso	1.000	Al
Al1	1.000	0.675	0.775	0.400	Biso	1.000	Al
Al1	1.000	0.625	0.725	0.450	Biso	1.000	Al
Al1	1.000	0.625	0.775	0.475	Biso	1.000	Al
Al1	1.000	0.675	0.725	0.475	Biso	1.000	Al
Al1	1.000	0.675	0.775	0.450	Biso	1.000	Al
Al1	1.000	0.625	0.725	0.500	Biso	1.000	Al
Al1	1.000	0.625	0.775	0.525	Biso	1.000	Al
Al1	1.000	0.675	0.725	0.525	Biso	1.000	Al
Al1	1.000	0.675	0.775	0.500	Biso	1.000	Al
Al1	1.000	0.625	0.725	0.550	Biso	1.000	Al
Al1	1.000	0.625	0.775	0.575	Biso	1.000	Al
Al1	1.000	0.675	0.725	0.575	Biso	1.000	Al
Al1	1.000	0.675	0.775	0.550	Biso	1.000	Al
Al1	1.000	0.625	0.725	0.600	Biso	1.000	Al
Al1	1.000	0.625	0.775	0.625	Biso	1.000	Al
Al1	1.000	0.675	0.725	0.625	Biso	1.000	Al
Al1	1.000	0.675	0.775	0.600	Biso	1.000	Al
Al1	1.000	0.625	0.725	0.650	Biso	1.000	Al
Al1	1.000	0.625	0.775	0.675	Biso	1.000	Al
Al1	1.000	0.675	0.725	0.675	Biso	1.000	Al
Al1	1.000	0.675	0.775	0.650	Biso	1.000	Al
Al1	1.000	0.625	0.725	0.700	Biso	1.000	Al
Al1	1.000	0.625	0.775	0.725	Biso	1.000	Al
Al1	1.000	0.675	0.725	0.725	Biso	1.000	Al
Al1	1.000	0.675	0.775	0.700	Biso	1.000	Al
Al1	1.000	0.625	0.725	0.750	Biso	1.000	Al
Al1	1.000	0.625	0.775	0.775	Biso	1.000	Al
Al1	1.000	0.675	0.725	0.775	Biso	1.000	Al
Al1	1.000	0.675	0.775	0.750	Biso	1.000	Al
Al1	1.000	0.625	0.725	0.800	Biso	1.000	Al
Al1	1.000	0.625	0.775	0.825	Biso	1.000	Al
Al1	1.000	0.675	0.725	0.825	Biso	1.000	Al
Al1	1.000	0.675	0.775	0.800	Biso	1.000	Al
Al1	1.000	0.625	0.725	0.850	Biso	1.000	Al
Al1	1.000	0.625	0.775	0.875	Biso	1.000	Al
Al1	1.000	0.675	0.725	0.875	Biso	1.000	Al
Al1	1.000	0.675	0.775	0.850	Biso	1.000	Al
Al1	1.000	0.625	0.725	0.900	Biso	1.000	Al
Al1	1.000	0.625	0.775	0.925	Biso	1.000	Al
Al1	1.000	0.675	0.725	0.925	Biso	1.000	Al
Al1	1.000	0.675	0.775	0.900	Biso	1.000	Al
Al1	1.000	0.625	0.725	0.950	Biso	1.000	Al
Al1	1.000	0.625	0.775	0.975	Biso	1.000	Al
Al1	1.000	0.675	0.725	0.975	Biso	1.000	Al
Al1	1.000	0.675	0.775	0.950	Biso	1.000	Al
Al1	1.000	0.625	0.825	0.000	Biso	1.000	Al
Al1	1.000	0.625	0.875	0.025	Biso	1.000	Al
Al1	1.000	0.675	0.825	0.025	Biso	1.000	Al
Al1	1.000	0.675	0.875	0.000	Biso	1.000	Al
Al1	1.000	0.625	0.825	0.050	Biso	1.000	Al
Al1	1.000	0.625	0.875	0.075	Biso	1.000	Al
Al1	1.000	0.675	0.825	0.075	Biso	1.000	Al
Al1	1.000	0.675	0.875	0.050	Biso	1.000	Al
Al1	1.000	0.625	0.825	0.100	Biso	1.000	Al
Al1	1.000	0.625	0.875	0.125	Biso	1.000	Al
Al1	1.000	0.675	0.825	0.125	Biso	1.000	Al
Al1	1.000	0.675	0.875	0.100	Biso	1.000	Al
Al1	1.000	0.625	0.825	0.150	Biso	1.000	Al
Al1	1.000	0.625	0.875	0.175	Biso	1.000	Al
Al1	1.000	0.675	0.825	0.175	Biso	1.000	Al
Al1	1.000	0.675	0.875	0.150	Biso	1.000	Al
Al1	1.000	0.625	0.825	0.200	Biso	1.000	Al
Al1	1.000	0.625	0.875	0.225	Biso	1.000	Al
Al1	1.000	0.675	0.825	0.225	Biso	1.000	Al
Al1	1.000	0.675	0.875	0.200	Biso	1.000	Al
Al1	1.000	0.625	0.825	0.250	Biso	1.000	Al
Al1	1.000	0.625	0.875	0.275	Biso	1.000	Al
Al1	1.000	0.675	0.825	0.275	Biso	1.000	Al
Al1	1.000	0.675	0.875	0.250	Biso	1.000	Al
Al1	1.000	0.625	0.825	0.300	Biso	1.000	Al
Al1	1.000	0.625	0.875	0.325	Biso	1.000	Al
Al1	1.000	0.675	0.825	0.325	Biso	1.000	Al
Al1	1.000	0.675	0.875	0.300	Biso	1.000	Al
Al1	1.000	0.625	0.825	0.350	Biso	1.000	Al
Al1	1.000	0.625	0.875	0.375	Biso	1.000	Al
Al1	1.000	0.675	0.825	0.375	Biso	1.000	Al
Al1	1.000	0.675	0.875	0.350	Biso	1.000	Al
Al1	1.000	0.625	0.825	0.400	Biso	1.000	Al
Al1	1.000	0.625	0.875	0.425	Biso	1.000	Al
Al1	1.000	0.675	0.825	0.425	Biso	1.000	Al
Al1	1.000	0.675	0.875	0.400	Biso	1.000	Al
Al1	1.000	0.625	0.825	0.450	Biso	1.000	Al
Al1	1.000	0.625	0.875	0.475	Biso	1.000	Al
Al1	1.000	0.675	0.825	0.475	Biso	1.000	Al
Al1	1.000	0.675	0.875	0.450	Biso	1.000	Al
Al1	1.000	0.625	0.825	0.500	Biso	1.000	Al
Al1	1.000	0.625	0.875	0.525	Biso	1.000	Al
Al1	1.000	0.675	0.825	0.525	Biso	1.000	Al
Al1	1.000	0.675	0.875	0.500	Biso	1.000	Al
Al1	1.000	0.625	0.825	0.550	Biso	1.000	Al
Al1	1.000	0.625	0.875	0.575	Biso	1.000	Al
Al1	1.000	0.675	0.825	0.575	Biso	1.000	Al
Al1	1.000	0.675	0.875	0.550	Biso	1.000	Al
Al1	1.000	0.625	0.825	0.600	Biso	1.000	Al
Al1	1.000	0.625	0.875	0.625	Biso	1.000	Al
Al1	1.000	0.675	0.825	0.625	Biso	1.000	Al
Al1	1.000	0.675	0.875	0.600	Biso	1.000	Al
Al1	1.000	0.625	0.825	0.650	Biso	1.000	Al
Al1	1.000	0.625	0.875	0.675	Biso	1.000	Al
Al1	1.000	0.675	0.825	0.675	Biso	1.000	Al
Al1	1.000	0.675	0.875	0.650	Biso	1.000	Al
Al1	1.000	0.625	0.825	0.700	Biso	1.000	Al
Al1	1.000	0.625	0.875	0.725	Biso	1.000	Al
Al1	1.000	0.675	0.825	0.725	Biso	1.000	Al
Al1	1.000	0.675	0.875	0.700	Biso	1.000	Al
Al1	1.000	0.625	0.825	0.750	Biso	1.000	Al
Al1	1.000	0.625	0.875	0.775	Biso	1.000	Al
Al1	1.000	0.675	0.825	0.775	Biso	1.000	Al
Al1	1.000	0.675	0.875	0.750	Biso	1.000	Al
Al1	1.000	0.625	0.825	0.800	Biso	1.000	Al
Al1	1.000	0.625	0.875	0.825	Biso	1.000	Al
Al1	1.000	0.675	0.825	0.825	Biso	1.000	Al
Al1	1.000	0.675	0.875	0.800	Biso	1.000	Al
Al1	1.000	0.625	0.825	0.850	Biso	1.000	Al
Al1	1.000	0.625	0.875	0.875	Biso	1.000	Al
Al1	1.000	0.675	0.825	0.875	Biso	1.000	Al
Al1	1.000	0.675	0.875	0.850	Biso	1.000	Al
Al1	1.000	0.625	0.825	0.900	Biso	1.000	Al
Al1	1.000	0.625	0.875	0.925	Biso	1.000	Al
Al1	1.000	0.675	0.825	0.925	Biso	1.000	Al
Al1	1.000	0.675	0.875	0.900	Biso	1.000	Al
Al1	1.000	0.625	0.825	0.950	Biso	1.000	Al
Al1	1.000	0.625	0.875	0.975	Biso	1.000	Al
Al1	1.000	0.675	0.825	0.975	Biso	1.000	Al
Al1	1.000	0.675	0.875	0.950	Biso	1.000	Al
Al1	1.000	0.625	0.925	0.000	Biso	1.000	Al
Al1	1.000	0.625	0.975	0.025	Biso	1.000	Al
Al1	1.000	0.675	0.925	0.025	Biso	1.000	Al
Al1	1.000	0.675	0.975	0.000	Biso	1.000	Al
Al1	1.000	0.625	0.925	0.050	Biso	1.000	Al
Al1	1.000	0.625	0.975	0.075	Biso	1.000	Al
Al1	1.000	0.675	0.925	0.075	Biso	1.000	Al
Al1	1.000	0.675	0.975	0.050	Biso	1.000	Al
Al1	1.000	0.625	0.925	0.100	Biso	1.000	Al
Al1	1.000	0.625	0.975	0.125	Biso	1.000	Al
Al1	1.000	0.675	0.925	0.125	Biso	1.000	Al
Al1	1.000	0.675	0.975	0.100	Biso	1.000	Al
Al1	1.000	0.625	0.925	0.150	Biso	1.000	Al
Al1	1.000	0.625	0.975	0.175	Biso	1.000	Al
Al1	1.000	0.675	0.925	0.175	Biso	1.000	Al
Al1	1.000	0.675	0.975	0.150	Biso	1.000	Al
Al1	1.000	0.625	0.925	0.200	Biso	1.000	Al
Al1	1.000	0.625	0.975	0.225	Biso	1.000	Al
Al1	1.000	0.675	0.925	0.225	Biso	1.000	Al
Al1	1.000	0.675	0.975	0.200	Biso	1.000	Al
Al1	1.000	0.625	0.925	0.250	Biso	1.000	Al
Al1	1.000	0.625	0.975	0.275	Biso	1.000	Al
Al1	1.000	0.675	0.925	0.275	Biso	1.000	Al
Al1	1.000	0.675	0.975	0.250	Biso	1.000	Al
Al1	1.000	0.625	0.925	0.300	Biso	1.000	Al
Al1	1.000	0.625	0.975	0.325	Biso	1.000	Al
Al1	1.000	0.675	0.925	0.325	Biso	1.000	Al
Al1	1.000	0.675	0.975	0.300	Biso	1.000	Al
Al1	1.000	0.625	0.925	0.350	Biso	1.000	Al
Al1	1.000	0.625	0.975	0.375	Biso	1.000	Al
Al1	1.000	0.675	0.925	0.375	Biso	1.000	Al
Al1	1.000	0.675	0.975	0.350	Biso	1.000	Al
Al1	1.000	0.625	0.925	0.400	Biso	1.000	Al
Al1	1.000	0.625	0.975	0.425	Biso	1.000	Al
Al1	1.000	0.675	0.925	0.425	Biso	1.000	Al
Al1	1.000	0.675	0.975	0.400	Biso	1.000	Al
Al1	1.000	0.625	0.925	0.450	Biso	1.000	Al
Al1	1.000	0.625	0.975	0.475	Biso	1.000	Al
Al1	1.000	0.675	0.925	0.475	Biso	1.000	Al
Al1	1.000	0.675	0.975	0.450	Biso	1.000	Al
Al1	1.000	0.625	0.925	0.500	Biso	1.000	Al
Al1	1.000	0.625	0.975	0.525	Biso	1.000	Al
Al1	1.000	0.675	0.925	0.525	Biso	1.000	Al
Al1	1.000	0.675	0.975	0.500	Biso	1.000	Al
Al1	1.000	0.625	0.925	0.550	Biso	1.000	Al
Al1	1.000	0.625	0.975	0.575	Biso	1.000	Al
Al1	1.000	0.675	0.925	0.575	Biso	1.000	Al
Al1	1.000	0.675	0.975	0.550	Biso	1.000	Al
Al1	1.000	0.625	0.925	0.600	Biso	1.000	Al
Al1	1.000	0.625	0.975	0.625	Biso	1.000	Al
Al1	1.000	0.675	0.925	0.625	Biso	1.000	Al
Al1	1.000	0.675	0.975	0.600	Biso	1.000	Al
Al1	1.000	0.625	0.925	0.650	Biso	1.000	Al
Al1	1.000	0.625	0.975	0.675	Biso	1.000	Al
Al1	1.000	0.675	0.925	0.675	Biso	1.000	Al
Al1	1.000	0.675	0.975	0.650	Biso	1.000	Al
Al1	1.000	0.625	0.925	0.700	Biso	1.000	Al
Al1	1.000	0.625	0.975	0.725	Biso	1.000	Al
Al1	1.000	0.675	0.925	0.725	Biso	1.000	Al
Al1	1.000	0.675	0.975	0.700	Biso	1.000	Al
Al1	1.000	0.625	0.925	0.750	Biso	1.000	Al
Al1	1.000	0.625	0.975	0.775	Biso	1.000	Al
Al1	1.000	0.675	0.925	0.775	Biso	1.000	Al
Al1	1.000	0.675	0.975	0.750	Biso	1.000	Al
Al1	1.000	0.625	0.925	0.800	Biso	1.000	Al
Al1	1.000	0.625	0.975	0.825	Biso	1.000	Al
Al1	1.000	0.675	0.925	0.825	Biso	1.000	Al
Al1	1.000	0.675	0.975	0.800	Biso	1.000	Al
Al1	1.000	0.625	0.925	0.850	Biso	1.000	Al
Al1	1.000	0.625	0.975	0.875	Biso	1.000	Al
Al1	1.000	0.675	0.925	0.875	Biso	1.000	Al
Al1	1.000	0.675	0.975	0.850	Biso	1.000	Al
Al1	1.000	0.625	0.925	0.900	Biso	1.000	Al
Al1	1.000	0.625	0.975	0.925	Biso	1.000	Al
Al1	1.000	0.675	0.925	0.925	Biso	1.000	Al
Al1	1.000	0.675	0.975	0.900	Biso	1.000	Al
Al1	1.000	0.625	0.925	0.950	Biso	1.000	Al
Al1	1.000	0.625	0.975	0.975	Biso	1.000	Al
Al1	1.000	0.675	0.925	0.975	Biso	1.000	Al
Al1	1.000	0.675	0.975	0.950	Biso	1.000	Al
Al1	1.000	0.725	0.025	0.000	Biso	1.000	Al
Al1	1.000	0.725	0.075	0.025	Biso	1.000	Al
Al1	1.000	0.775	0.025	0.025	Biso	1.000	Al
Al1	1.000	0.775	0.075	0.000	Biso	1.000	Al
Al1	1.000	0.725	0.025	0.050	Biso	1.000	Al
Al1	1.000	0.725	0.075	0.075	Biso	1.000	Al
Al1	1.000	0.775	0.025	0.075	Biso	1.000	Al
Al1	1.000	0.775	0.075	0.050	Biso	1.000	Al
Al1	1.000	0.725	0.025	0.100	Biso	1.000	Al
Al1	1.000	0.725	0.075	0.125	Biso	1.000	Al
Al1	1.000	0.775	0.025	0.125	Biso	1.000	Al
Al1	1.000	0.775	0.075	0.100	Biso	1.000	Al
Al1	1.000	0.725	0.025	0.150	Biso	1.000	Al
Al1	1.000	0.725	0.075	0.175	Biso	1.000	Al
Al1	1.000	0.775	0.025	0.175	Biso	1.000	Al
Al1	1.000	0.775	0.075	0.150	Biso	1.000	Al
Al1	1.000	0.725	0.025	0.200	Biso	1.000	Al
Al1	1.000	0.725	0.075	0.225	Biso	1.000	Al
Al1	1.000	0.775	0.025	0.225	Biso	1.000	Al
Al1	1.000	0.775	0.075	0.200	Biso	1.000	Al
Al1	1.000	0.725	0.025	0.250	Biso	1.000	Al
Al1	1.000	0.725	0.075	0.275	Biso	1.000	Al
Al1	1.000	0.775	0.025	0.275	Biso	1.000	Al
Al1	1.000	0.775	0.075	0.250	Biso	1.000	Al
Al1	1.000	0.725	0.025	0.300	Biso	1.000	Al
Al1	1.000	0.725	0.075	0.325	Biso	1.000	Al
Al1	1.000	0.775	0.025	0.325	Biso	1.000	Al
Al1	1.000	0.775	0.075	0.300	Biso	1.000	Al
Al1	1.000	0.725	0.025	0.350	Biso	1.000	Al
Al1	1.000	0.725	0.075	0.375	Biso	1.000	Al
Al1	1.000	0.775	0.025	0.375	Biso	1.000	Al
Al1	1.000	0.775	0.075	0.350	Biso	1.000	Al
Al1	1.000	0.725	0.025	0.400	Biso	1.000	Al
Al1	1.000	0.725	0.075	0.425	Biso	1.000	Al
Al1	1.000	0.775	0.025	0.425	Biso	1.000	Al
Al1	1.000	0.775	0.075	0.400	Biso	1.000	Al
Al1	1.000	0.725	0.025	0.450	Biso	1.000	Al
Al1	1.000	0.725	0.075	0.475	Biso	1.000	Al
Al1	1.000	0.775	0.025	0.475	Biso	1.000	Al
Al1	1.000	0.775	0.075	0.450	Biso	1.000	Al
Al1	1.000	0.725	0.025	0.500	Biso	1.000	Al
Al1	1.000	0.725	0.075	0.525	Biso	1.000	Al
Al1	1.000	0.775	0.025	0.525	Biso	1.000	Al
Al1	1.000	0.775	0.075	0.500	Biso	1.000	Al
Al1	1.000	0.725	0.025	0.550	Biso	1.000	Al
Al1	1.000	0.725	0.075	0.575	Biso	1.000	Al
Al1	1.000	0.775	0.025	0.575	Biso	1.000	Al
Al1	1.000	0.775	0.075	0.550	Biso	1.000	Al
Al1	1.000	0.725	0.025	0.600	Biso	1.000	Al
Al1	1.000	0.725	0.075	0.625	Biso	1.000	Al
Al1	1.000	0.775	0.025	0.625	Biso	1.000	Al
Al1	1.000	0.775	0.075	0.600	Biso	1.000	Al
Al1	1.000	0.725	0.025	0.650	Biso	1.000	Al
Al1	1.000	0.725	0.075	0.675	Biso	1.000	Al
Al1	1.000	0.775	0.025	0.675	Biso	1.000	Al
Al1	1.000	0.775	0.075	0.650	Biso	1.000	Al
Al1	1.000	0.725	0.025	0.700	Biso	1.000	Al
Al1	1.000	0.725	0.075	0.725	Biso	1.000	Al
Al1	1.000	0.775	0.025	0.725	Biso	1.000	Al
Al1	1.000	0.775	0.075	0.700	Biso	1.000	Al
Al1	1.000	0.725	0.025	0.750	Biso	1.000	Al
Al1	1.000	0.725	0.075	0.775	Biso	1.000	Al
Al1	1.000	0.775	0.025	0.775	Biso	1.000	Al
Al1	1.000	0.775	0.075	0.750	Biso	1.000	Al
Al1	1.000	0.725	0.025	0.800	Biso	1.000	Al
Al1	1.000	0.725	0.075	0.825	Biso	1.000	Al
Al1	1.000	0.775	0.025	0.825	Biso	1.000	Al
Al1	1.000	0.775	0.075	0.800	Biso	1.000	Al
Al1	1.000	0.725	0.025	0.850	Biso	1.000	Al
Al1	1.000	0.725	0.075	0.875	Biso	1.000	Al
Al1	1.000	0.775	0.025	0.875	Biso	1.000	Al
Al1	1.000	0.775	0.075	0.850	Biso	1.000	Al
Al1	1.000	0.725	0.025	0.900	Biso	1.000	Al
Al1	1.000	0.725	0.075	0.925	Biso	1.000	Al
Al1	1.000	0.775	0.025	0.925	Biso	1.000	Al
Al1	1.000	0.775	0.075	0.900	Biso	1.000	Al
Al1	1.000	0.725	0.025	0.950	Biso	1.000	Al
Al1	1.000	0.725	0.075	0.975	Biso	1.000	Al
Al1	1.000	0.775	0.025	0.975	Biso	1.000	Al
Al1	1.000	0.775	0.075	0.950	Biso	1.000	Al
Al1	1.000	0.725	0.125	0.000	Biso	1.000	Al
Al1	1.000	0.725	0.175	0.025	Biso	1.000	Al
Al1	1.000	0.775	0.125	0.025	Biso	1.000	Al
Al1	1.000	0.775	0.175	0.000	Biso	1.000	Al
Al1	1.000	0.725	0.125	0.050	Biso	1.000	Al
Al1	1.000	0.725	0.175	0.075	Biso	1.000	Al
Al1	1.000	0.775	0.125	0.075	Biso	1.000	Al
Al1	1.000	0.775	0.175	0.050	Biso	1.000	Al
Al1	1.000	0.725	0.125	0.100	Biso	1.000	Al
Al1	1.000	0.725	0.175	0.125	Biso	1.000	Al
Al1	1.000	0.775	0.125	0.125	Biso	1.000	Al
Al1	1.000	0.775	0.175	0.100	Biso	1.000	Al
Al1	1.000	0.725	0.125	0.150	Biso	1.000	Al
Al1	1.000	0.725	0.175	0.175	Biso	1.000	Al
Al1	1.000	0.775	0.125	0.175	Biso	1.000	Al
Al1	1.000	0.775	0.175	0.150	Biso	1.000	Al
Al1	1.000	0.725	0.125	0.200	Biso	1.000	Al
Al1	1.000	0.725	0.175	0.225	Biso	1.000	Al
Al1	1.000	0.775	0.125	0.225	Biso	1.000	Al
Al1	1.000	0.775	0.175	0.200	Biso	1.000	Al
Al1	1.000	0.725	0.125	0.250	Biso	1.000	Al
Al1	1.000	0.725	0.175	0.275	Biso	1.000	Al
Al1	1.000	0.775	0.125	0.275	Biso	1.000	Al
Al1	1.000	0.775	0.175	0.250	Biso	1.000	Al
Al1	1.000	0.725	0.125	0.300	Biso	1.000	Al
Al1	1.000	0.725	0.175	0.325	Biso	1.000	Al
Al1	1.000	0.775	0.125	0.325	Biso	1.000	Al
Al1	1.000	0.775	0.175	0.300	Biso	1.000	Al
Al1	1.000	0.725	0.125	0.350	Biso	1.000	Al
Al1	1.000	0.725	0.175	0.375	Biso	1.000	Al
Al1	1.000	0.775	0.125	0.375	Biso	1.000	Al
Al1	1.000	0.775	0.175	0.350	Biso	1.000	Al
Al1	1.000	0.725	0.125	0.400	Biso	1.000	Al
Al1	1.000	0.725	0.175	0.425	Biso	1.000	Al
Al1	1.000	0.775	0.125	0.425	Biso	1.000	Al
Al1	1.000	0.775	0.175	0.400	Biso	1.000	Al
Al1	1.000	0.725	0.125	0.450	Biso	1.000	Al
Al1	1.000	0.725	0.175	0.475	Biso	1.000	Al
Al1	1.000	0.775	0.125	0.475	Biso	1.000	Al
Al1	1.000	0.775	0.175	0.450	Biso	1.000	Al
Al1	1.000	0.725	0.125	0.500	Biso	1.000	Al
Al1	1.000	0.725	0.175	0.525	Biso	1.000	Al
Al1	1.000	0.775	0.125	0.525	Biso	1.000	Al
Al1	1.000	0.775	0.175	0.500	Biso	1.000	Al
Al1	1.000	0.725	0.125	0.550	Biso	1.000	Al
Al1	1.000	0.725	0.175	0.575	Biso	1.000	Al
Al1	1.000	0.775	0.125	0.575	Biso	1.000	Al
Al1	1.000	0.775	0.175	0.550	Biso	1.000	Al
Al1	1.000	0.725	0.125	0.600	Biso	1.000	Al
Al1	1.000	0.725	0.175	0.625	Biso	1.000	Al
Al1	1.000	0.775	0.125	0.625	Biso	1.000	Al
Al1	1.000	0.775	0.175	0.600	Biso	1.000	Al
Al1	1.000	0.725	0.125	0.650	Biso	1.000	Al
Al1	1.000	0.725	0.175	0.675	Biso	1.000	Al
Al1	1.000	0.775	0.125	0.675	Biso	1.000	Al
Al1	1.000	0.775	0.175	0.650	Biso	1.000	Al
Al1	1.000	0.725	0.125	0.700	Biso	1.000	Al
Al1	1.000	0.725	0.175	0.725	Biso	1.000	Al
Al1	1.000	0.775	0.125	0.725	Biso	1.000	Al
Al1	1.000	0.775	0.175	0.700	Biso	1.000	Al
Al1	1.000	0.725	0.125	0.750	Biso	1.000	Al
Al1	1.000	0.725	0.175	0.775	Biso	1.000	Al
Al1	1.000	0.775	0.125	0.775	Biso	1.000	Al
Al1	1.000	0.775	0.175	0.750	Biso	1.000	Al
Al1	1.000	0.725	0.125	0.800	Biso	1.000	Al
Al1	1.000	0.725	0.175	0.825	Biso	1.000	Al
Al1	1.000	0.775	0.125	0.825	Biso	1.000	Al
Al1	1.000	0.775	0.175	0.800	Biso	1.000	Al
Al1	1.000	0.725	0.125	0.850	Biso	1.000	Al
Al1	1.000	0.725	0.175	0.875	Biso	1.000	Al
Al1	1.000	0.775	0.125	0.875	Biso	1.000	Al
Al1	1.000	0.775	0.175	0.850	Biso	1.000	Al
Al1	1.000	0.725	0.125	0.900	Biso	1.000	Al
Al1	1.000	0.725	0.175	0.925	Biso	1.000	Al
Al1	1.000	0.775	0.125	0.925	Biso	1.000	Al
Al1	1.000	0.775	0.175	0.900	Biso	1.000	Al
Al1	1.000	0.725	0.125	0.950	Biso	1.000	Al
Al1	1.000	0.725	0.175	0.975	Biso	1.000	Al
Al1	1.000	0.775	0.125	0.975	Biso	1.000	Al
Al1	1.000	0.775	0.175	0.950	Biso	1.000	Al
Al1	1.000	0.725	0.225	0.000	Biso	1.000	Al
Al1	1.000	0.725	0.275	0.025	Biso	1.000	Al
Al1	1.000	0.775	0.225	0.025	Biso	1.000	Al
Al1	1.000	0.775	0.275	0.000	Biso	1.000	Al
Al1	1.000	0.725	0.225	0.050	Biso	1.000	Al
Al1	1.000	0.725	0.275	0.075	Biso	1.000	Al
Al1	1.000	0.775	0.225	0.075	Biso	1.000	Al
Al1	1.000	0.775	0.275	0.050	Biso	1.000	Al
Al1	1.000	0.725	0.225	0.100	Biso	1.000	Al
Al1	1.000	0.725	0.275	0.125	Biso	1.000	Al
Al1	1.000	0.775	0.225	0.125	Biso	1.000	Al
Al1	1.000	0.775	0.275	0.100	Biso	1.000	Al
Al1	1.000	0.725	0.225	0.150	Biso	1.000	Al
Al1	1.000	0.725	0.275	0.175	Biso	1.000	Al
Al1	1.000	0.775	0.225	0.175	Biso	1.000	Al
Al1	1.000	0.775	0.275	0.150	Biso	1.000	Al
Al1	1.000	0.725	0.225	0.200	Biso	1.000	Al
Al1	1.000	0.725	0.275	0.225	Biso	1.000	Al
Al1	1.000	0.775	0.225	0.225	Biso	1.000	Al
Al1	1.000	0.775	0.275	0.200	Biso	1.000	Al
Al1	1.000	0.725	0.225	0.250	Biso	1.000	Al
Al1	1.000	0.725	0.275	0.275	Biso	1.000	Al
Al1	1.000	0.775	0.225	0.275	Biso	1.000	Al
Al1	1.000	0.775	0.275	0.250	Biso	1.000	Al
Al1	1.000	0.725	0.225	0.300	Biso	1.000	Al
Al1	1.000	0.725	0.275	0.325	Biso	1.000	Al
Al1	1.000	0.775	0.225	0.325	Biso	1.000	Al
Al1	1.000	0.775	0.275	0.300	Biso	1.000	Al
Al1	1.000	0.725	0.225	0.350	Biso	1.000	Al
Al1	1.000	0.725	0.275	0.375	Biso	1.000	Al
Al1	1.000	0.775	0.225	0.375	Biso	1.000	Al
Al1	1.000	0.775	0.275	0.350	Biso	1.000	Al
Al1	1.000	0.725	0.225	0.400	Biso	1.000	Al
Al1	1.000	0.725	0.275	0.425	Biso	1.000	Al
Al1	1.000	0.775	0.225	0.425	Biso	1.000	Al
Al1	1.000	0.775	0.275	0.400	Biso	1.000	Al
Al1	1.000	0.725	0.225	0.450	Biso	1.000	Al
Al1	1.000	0.725	0.275	0.475	Biso	1.000	Al
Al1	1.000	0.775	0.225	0.475	Biso	1.000	Al
Al1	1.000	0.775	0.275	0.450	Biso	1.000	Al
Al1	1.000	0.725	0.225	0.500	Biso	1.000	Al
Al1	1.000	0.725	0.275	0.525	Biso	1.000	Al
Al1	1.000	0.775	0.225	0.525	Biso	1.000	Al
Al1	1.000	0.775	0.275	0.500	Biso	1.000	Al
Al1	1.000	0.725	0.225	0.550	Biso	1.000	Al
Al1	1.000	0.725	0.275	0.575	Biso	1.000	Al
Al1	1.000	0.775	0.225	0.575	Biso	1.000	Al
Al1	1.000	0.775	0.275	0.550	Biso	1.000	Al
Al1	1.000	0.725	0.225	0.600	Biso	1.000	Al
Al1	1.000	0.725	0.275	0.625	Biso	1.000	Al
Al1	1.000	0.775	0.225	0.625	Biso	1.000	Al
Al1	1.000	0.775	0.275	0.600	Biso	1.000	Al
Al1	1.000	0.725	0.225	0.650	Biso	1.000	Al
Al1	1.000	0.725	0.275	0.675	Biso	1.000	Al
Al1	1.000	0.775	0.225	0.675	Biso	1.000	Al
Al1	1.000	0.775	0.275	0.650	Biso	1.000	Al
Al1	1.000	0.725	0.225	0.700	Biso	1.000	Al
Al1	1.000	0.725	0.275	0.725	Biso	1.000	Al
Al1	1.000	0.775	0.225	0.725	Biso	1.000	Al
Al1	1.000	0.775	0.275	0.700	Biso	1.000	Al
Al1	1.000	0.725	0.225	0.750	Biso	1.000	Al
Al1	1.000	0.725	0.275	0.775	Biso	1.000	Al
Al1	1.000	0.775	0.225	0.775	Biso	1.000	Al
Al1	1.000	0.775	0.275	0.750	Biso	1.000	Al
Al1	1.000	0.725	0.225	0.800	Biso	1.000	Al
Al1	1.000	0.725	0.275	0.825	Biso	1.000	Al
Al1	1.000	0.775	0.225	0.825	Biso	1.000	Al
Al1	1.000	0.775	0.275	0.800	Biso	1.000	Al
Al1	1.000	0.725	0.225	0.850	Biso	1.000	Al
Al1	1.000	0.725	0.275	0.875	Biso	1.000	Al
Al1	1.000	0.775	0.225	0.875	Biso	1.000	Al
Al1	1.000	0.775	0.275	0.850	Biso	1.000	Al
Al1	1.000	0.725	0.225	0.900	Biso	1.000	Al
Al1	1.000	0.725	0.275	0.925	Biso	1.000	Al
Al1	1.000	0.775	0.225	0.925	Biso	1.000	Al
Al1	1.000	0.775	0.275	0.900	Biso	1.000	Al
Al1	1.000	0.725	0.225	0.950	Biso	1.000	Al
Al1	1.000	0.725	0.275	0.975	Biso	1.000	Al
Al1	1.000	0.775	0.225	0.975	Biso	1.000	Al
Al1	1.000	0.775	0.275	0.950	Biso	1.000	Al
Al1	1.000	0.725	0.325	0.000	Biso	1.000	Al
Al1	1.000	0.725	0.375	0.025	Biso	1.000	Al
Al1	1.000	0.775	0.325	0.025	Biso	1.000	Al
Al1	1.000	0.775	0.375	0.000	Biso	1.000	Al
Al1	1.000	0.725	0.325	0.050	Biso	1.000	Al
Al1	1.000	0.725	0.375	0.075	Biso	1.000	Al
Al1	1.000	0.775	0.325	0.075	Biso	1.000	Al
Al1	1.000	0.775	0.375	0.050	Biso	1.000	Al
Al1	1.000	0.725	0.325	0.100	Biso	1.000	Al
Al1	1.000	0.725	0.375	0.125	Biso	1.000	Al
Al1	1.000	0.775	0.325	0.125	Biso	1.000	Al
Al1	1.000	0.775	0.375	0.100	Biso	1.000	Al
Al1	1.000	0.725	0.325	0.150	Biso	1.000	Al
Al1	1.000	0.725	0.375	0.175	Biso	1.000	Al
Al1	1.000	0.775	0.325	0.175	Biso	1.000	Al
Al1	1.000	0.775	0.375	0.150	Biso	1.000	Al
Al1	1.000	0.725	0.325	0.200	Biso	1.000	Al
Al1	1.000	0.725	0.375	0.225	Biso	1.000	Al
Al1	1.000	0.775	0.325	0.225	Biso	1.000	Al
Al1	1.000	0.775	0.375	0.200	Biso	1.000	Al
Al1	1.000	0.725	0.325	0.250	Biso	1.000	Al
Al1	1.000	0.725	0.375	0.275	Biso	1.000	Al
Al1	1.000	0.775	0.325	0.275	Biso	1.000	Al
Al1	1.000	0.775	0.375	0.250	Biso	1.000	Al
Al1	1.000	0.725	0.325	0.300	Biso	1.000	Al
Al1	1.000	0.725	0.375	0.325	Biso	1.000	Al
Al1	1.000	0.775	0.325	0.325	Biso	1.000	Al
Al1	1.000	0.775	0.375	0.300	Biso	1.000	Al
Al1	1.000	0.725	0.325	0.350	Biso	1.000	Al
Al1	1.000	0.725	0.375	0.375	Biso	1.000	Al
Al1	1.000	0.775	0.325	0.375	Biso	1.000	Al
Al1	1.000	0.775	0.375	0.350	Biso	1.000	Al
Al1	1.000	0.725	0.325	0.400	Biso	1.000	Al
Al1	1.000	0.725	0.375	0.425	Biso	1.000	Al
Al1	1.000	0.775	0.325	0.425	Biso	1.000	Al
Al1	1.000	0.775	0.375	0.400	Biso	1.000	Al
Al1	1.000	0.725	0.325	0.450	Biso	1.000	Al
Al1	1.000	0.725	0.375	0.475	Biso	1.000	Al
Al1	1.000	0.775	0.325	0.475	Biso	1.000	Al
Al1	1.000	0.775	0.375	0.450	Biso	1.000	Al
Al1	1.000	0.725	0.325	0.500	Biso	1.000	Al
Al1	1.000	0.725	0.375	0.525	Biso	1.000	Al
Al1	1.000	0.775	0.325	0.525	Biso	1.000	Al
Al1	1.000	0.775	0.375	0.500	Biso	1.000	Al
Al1	1.000	0.725	0.325	0.550	Biso	1.000	Al
Al1	1.000	0.725	0.375	0.575	Biso	1.000	Al
Al1	1.000	0.775	0.325	0.575	Biso	1.000	Al
Al1	1.000	0.775	0.375	0.550	Biso	1.000	Al
Al1	1.000	0.725	0.325	0.600	Biso	1.000	Al
Al1	1.000	0.725	0.375	0.625	Biso	1.000	Al
Al1	1.000	0.775	0.325	0.625	Biso	1.000	Al
Al1	1.000	0.775	0.375	0.600	Biso	1.000	Al
Al1	1.000	0.725	0.325	0.650	Biso	1.000	Al
Al1	1.000	0.725	0.375	0.675	Biso	1.000	Al
Al1	1.000	0.775	0.325	0.675	Biso	1.000	Al
Al1	1.000	0.775	0.375	0.650	Biso	1.000	Al
Al1	1.000	0.725	0.325	0.700	Biso	1.000	Al
Al1	1.000	0.725	0.375	0.725	Biso	1.000	Al
Al1	1.000	0.775	0.325	0.725	Biso	1.000	Al
Al1	1.000	0.775	0.375	0.700	Biso	1.000	Al
Al1	1.000	0.725	0.325	0.750	Biso	1.000	Al
Al1	1.000	0.725	0.375	0.775	Biso	1.000	Al
Al1	1.000	0.775	0.325	0.775	Biso	1.000	Al
Al1	1.000	0.775	0.375	0.750	Biso	1.000	Al
Al1	1.000	0.725	0.325	0.800	Biso	1.000	Al
Al1	1.000	0.725	0.375	0.825	Biso	1.000	Al
Al1	1.000	0.775	0.325	0.825	Biso	1.000	Al
Al1	1.000	0.775	0.375	0.800	Biso	1.000	Al
Al1	1.000	0.725	0.325	0.850	Biso	1.000	Al
Al1	1.000	0.725	0.375	0.875	Biso	1.000	Al
Al1	1.000	0.775	0.325	0.875	Biso	1.000	Al
Al1	1.000	0.775	0.375	0.850	Biso	1.000	Al
Al1	1.000	0.725	0.325	0.900	Biso	1.000	Al
Al1	1.000	0.725	0.375	0.925	Biso	1.000	Al
Al1	1.000	0.775	0.325	0.925	Biso	1.000	Al
Al1	1.000	0.775	0.375	0.900	Biso	1.000	Al
Al1	1.000	0.725	0.325	0.950	Biso	1.000	Al
Al1	1.000	0.725	0.375	0.975	Biso	1.000	Al
Al1	1.000	0.775	0.325	0.975	Biso	1.000	Al
Al1	1.000	0.775	0.375	0.950	Biso	1.000	Al
Al1	1.000	0.725	0.425	0.000	Biso	1.000	Al
Al1	1.000	0.725	0.475	0.025	Biso	1.000	Al
Al1	1.000	0.775	0.425	0.025	Biso	1.000	Al
Al1	1.000	0.775	0.475	0.000	Biso	1.000	Al
Al1	1.000	0.725	0.425	0.050	Biso	1.000	Al
Al1	1.000	0.725	0.475	0.075	Biso	1.000	Al
Al1	1.000	0.775	0.425	0.075	Biso	1.000	Al
Al1	1.000	0.775	0.475	0.050	Biso	1.000	Al
Al1	1.000	0.725	0.425	0.100	Biso	1.000	Al
Al1	1.000	0.725	0.475	0.125	Biso	1.000	Al
Al1	1.000	0.775	0.425	0.125	Biso	1.000	Al
Al1	1.000	0.775	0.475	0.100	Biso	1.000	Al
Al1	1.000	0.725	0.425	0.150	Biso	1.000	Al
Al1	1.000	0.725	0.475	0.175	Biso	1.000	Al
Al1	1.000	0.775	0.425	0.175	Biso	1.000	Al
Al1	1.000	0.775	0.475	0.150	Biso	1.000	Al
Al1	1.000	0.725	0.425	0.200	Biso	1.000	Al
Al1	1.000	0.725	0.475	0.225	Biso	1.000	Al
Al1	1.000	0.775	0.425	0.225	Biso	1.000	Al
Al1	1.000	0.775	0.475	0.200	Biso	1.000	Al
Al1	1.000	0.725	0.425	0.250	Biso	1.000	Al
Al1	1.000	0.725	0.475	0.275	Biso	1.000	Al
Al1	1.000	0.775	0.425	0.275	Biso	1.000	Al
Al1	1.000	0.775	0.475	0.250	Biso	1.000	Al
Al1	1.000	0.725	0.425	0.300	Biso	1.000	Al
Al1	1.000	0.725	0.475	0.325	Biso	1.000	Al
Al1	1.000	0.775	0.425	0.325	Biso	1.000	Al
Al1	1.000	0.775	0.475	0.300	Biso	1.000	Al
Al1	1.000	0.725	0.425	0.350	Biso	1.000	Al
Al1	1.000	0.725	0.475	0.375	Biso	1.000	Al
Al1	1.000	0.775	0.425	0.375	Biso	1.000	Al
Al1	1.000	0.775	0.475	0.350	Biso	1.000	Al
Al1	1.000	0.725	0.425	0.400	Biso	1.000	Al
Al1	1.000	0.725	0.475	0.425	Biso	1.000	Al
Al1	1.000	0.775	0.425	0.425	Biso	1.000	Al
Al1	1.000	0.775	0.475	0.400	Biso	1.000	Al
Al1	1.000	0.725	0.425	0.450	Biso	1.000	Al
Al1	1.000	0.725	0.475	0.475	Biso	1.000	Al
Al1	1.000	0.775	0.425	0.475	Biso	1.000	Al
Al1	1.000	0.775	0.475	0.450	Biso	1.000	Al
Al1	1.000	0.725	0.425	0.500	Biso	1.000	Al
Al1	1.000	0.725	0.475	0.525	Biso	1.000	Al
Al1	1.000	0.775	0.425	0.525	Biso	1.000	Al
Al1	1.000	0.775	0.475	0.500	Biso	1.000	Al
Al1	1.000	0.725	0.425	0.550	Biso	1.000	Al
Al1	1.000	0.725	0.475	0.575	Biso	1.000	Al
Al1	1.000	0.775	0.425	0.575	Biso	1.000	Al
Al1	1.000	0.775	0.475	0.550	Biso	1.000	Al
Al1	1.000	0.725	0.425	0.600	Biso	1.000	Al
Al1	1.000	0.725	0.475	0.625	Biso	1.000	Al
Al1	1.000	0.775	0.425	0.625	Biso	1.000	Al
Al1	1.000	0.775	0.475	0.600	Biso	1.000	Al
Al1	1.000	0.725	0.425	0.650	Biso	1.000	Al
Al1	1.000	0.725	0.475	0.675	Biso	1.000	Al
Al1	1.000	0.775	0.425	0.675	Biso	1.000	Al
Al1	1.000	0.775	0.475	0.650	Biso	1.000	Al
Al1	1.000	0.725	0.425	0.700	Biso	1.000	Al
Al1	1.000	0.725	0.475	0.725	Biso	1.000	Al
Al1	1.000	0.775	0.425	0.725	Biso	1.000	Al
Al1	1.000	0.775	0.475	0.700	Biso	1.000	Al
Al1	1.000	0.725	0.425	0.750	Biso	1.000	Al
Al1	1.000	0.725	0.475	0.775	Biso	1.000	Al
Al1	1.000	0.775	0.425	0.775	Biso	1.000	Al
Al1	1.000	0.775	0.475	0.750	Biso	1.000	Al
Al1	1.000	0.725	0.425	0.800	Biso	1.000	Al
Al1	1.000	0.725	0.475	0.825	Biso	1.000	Al
Al1	1.000	0.775	0.425	0.825	Biso	1.000	Al
Al1	1.000	0.775	0.475	0.800	Biso	1.000	Al
Al1	1.000	0.725	0.425	0.850	Biso	1.000	Al
Al1	1.000	0.725	0.475	0.875	Biso	1.000	Al
Al1	1.000	0.775	0.425	0.875	Biso	1.000	Al
Al1	1.000	0.775	0.475	0.850	Biso	1.000	Al
Al1	1.000	0.725	0.425	0.900	Biso	1.000	Al
Al1	1.000	0.725	0.475	0.925	Biso	1.000	Al
Al1	1.000	0.775	0.425	0.925	Biso	1.000	Al
Al1	1.000	0.775	0.475	0.900	Biso	1.000	Al
Al1	1.000	0.725	0.425	0.950	Biso	1.000	Al
Al1	1.000	0.725	0.475	0.975	Biso	1.000	Al
Al1	1.000	0.775	0.425	0.975	Biso	1.000	Al
Al1	1.000	0.775	0.475	0.950	Biso	1.000	Al
Al1	1.000	0.725	0.525	0.000	Biso	1.000	Al
Al1	1.000	0.725	0.575	0.025	Biso	1.000	Al
Al1	1.000	0.775	0.525	0.025	Biso	1.000	Al
Al1	1.000	0.775	0.575	0.000	Biso	1.000	Al
Al1	1.000	0.725	0.525	0.050	Biso	1.000	Al
Al1	1.000	0.725	0.575	0.075	Biso	1.000	Al
Al1	1.000	0.775	0.525	0.075	Biso	1.000	Al
Al1	1.000	0.775	0.575	0.050	Biso	1.000	Al
Al1	1.000	0.725	0.525	0.100	Biso	1.000	Al
Al1	1.000	0.725	0.575	0.125	Biso	1.000	Al
Al1	1.000	0.775	0.525	0.125	Biso	1.000	Al
Al1	1.000	0.775	0.575	0.100	Biso	1.000	Al
Al1	1.000	0.725	0.525	0.150	Biso	1.000	Al
Al1	1.000	0.725	0.575	0.175	Biso	1.000	Al
Al1	1.000	0.775	0.525	0.175	Biso	1.000	Al
Al1	1.000	0.775	0.575	0.150	Biso	1.000	Al
Al1	1.000	0.725	0.525	0.200	Biso	1.000	Al
Al1	1.000	0.725	0.575	0.225	Biso	1.000	Al
Al1	1.000	0.775	0.525	0.225	Biso	1.000	Al
Al1	1.000	0.775	0.575	0.200	Biso	1.000	Al
Al1	1.000	0.725	0.525	0.250	Biso	1.000	Al
Al1	1.000	0.725	0.575	0.275	Biso	1.000	Al
Al1	1.000	0.775	0.525	0.275	Biso	1.000	Al
Al1	1.000	0.775	0.575	0.250	Biso	1.000	Al
Al1	1.000	0.725	0.525	0.300	Biso	1.000	Al
Al1	1.000	0.725	0.575	0.325	Biso	1.000	Al
Al1	1.000	0.775	0.525	0.325	Biso	1.000	Al
Al1	1.000	0.775	0.575	0.300	Biso	1.000	Al
Al1	1.000	0.725	0.525	0.350	Biso	1.000	Al
Al1	1.000	0.725	0.575	0.375	Biso	1.000	Al
Al1	1.000	0.775	0.525	0.375	Biso	1.000	Al
Al1	1.000	0.775	0.575	0.350	Biso	1.000	Al
Al1	1.000	0.725	0.525	0.400	Biso	1.000	Al
Al1	1.000	0.725	0.575	0.425	Biso	1.000	Al
Al1	1.000	0.775	0.525	0.425	Biso	1.000	Al
Al1	1.000	0.775	0.575	0.400	Biso	1.000	Al
Al1	1.000	0.725	0.525	0.450	Biso	1.000	Al
Al1	1.000	0.725	0.575	0.475	Biso	1.000	Al
Al1	1.000	0.775	0.525	0.475	Biso	1.000	Al
Al1	1.000	0.775	0.575	0.450	Biso	1.000	Al
Al1	1.000	0.725	0.525	0.500	Biso	1.000	Al
Al1	1.000	0.725	0.575	0.525	Biso	1.000	Al
Al1	1.000	0.775	0.525	0.525	Biso	1.000	Al
Al1	1.000	0.775	0.575	0.500	Biso	1.000	Al
Al1	1.000	0.725	0.525	0.550	Biso	1.000	Al
Al1	1.000	0.725	0.575	0.575	Biso	1.000	Al
Al1	1.000	0.775	0.525	0.575	Biso	1.000	Al
Al1	1.000	0.775	0.575	0.550	Biso	1.000	Al
Al1	1.000	0.725	0.525	0.600	Biso	1.000	Al
Al1	1.000	0.725	0.575	0.625	Biso	1.000	Al
Al1	1.000	0.775	0.525	0.625	Biso	1.000	Al
Al1	1.000	0.775	0.575	0.600	Biso	1.000	Al
Al1	1.000	0.725	0.525	0.650	Biso	1.000	Al
Al1	1.000	0.725	0.575	0.675	Biso	1.000	Al
Al1	1.000	0.775	0.525	0.675	Biso	1.000	Al
Al1	1.000	0.775	0.575	0.650	Biso	1.000	Al
Al1	1.000	0.725	0.525	0.700	Biso	1.000	Al
Al1	1.000	0.725	0.575	0.725	Biso	1.000	Al
Al1	1.000	0.775	0.525	0.725	Biso	1.000	Al
Al1	1.000	0.775	0.575	0.700	Biso	1.000	Al
Al1	1.000	0.725	0.525	0.750	Biso	1.000	Al
Al1	1.000	0.725	0.575	0.775	Biso	1.000	Al
Al1	1.000	0.775	0.525	0.775	Biso	1.000	Al
Al1	1.000	0.775	0.575	0.750	Biso	1.000	Al
Al1	1.000	0.725	0.525	0.800	Biso	1.000	Al
Al1	1.000	0.725	0.575	0.825	Biso	1.000	Al
Al1	1.000	0.775	0.525	0.825	Biso	1.000	Al
Al1	1.000	0.775	0.575	0.800	Biso	1.000	Al
Al1	1.000	0.725	0.525	0.850	Biso	1.000	Al
Al1	1.000	0.725	0.575	0.875	Biso	1.000	Al
Al1	1.000	0.775	0.525	0.875	Biso	1.000	Al
Al1	1.000	0.775	0.575	0.850	Biso	1.000	Al
Al1	1.000	0.725	0.525	0.900	Biso	1.000	Al
Al1	1.000	0.725	0.575	0.925	Biso	1.000	Al
Al1	1.000	0.775	0.525	0.925	Biso	1.000	Al
Al1	1.000	0.775	0.575	0.900	Biso	1.000	Al
Al1	1.000	0.725	0.525	0.950	Biso	1.000	Al
Al1	1.000	0.725	0.575	0.975	Biso	1.000	Al
Al1	1.000	0.775	0.525	0.975	Biso	1.000	Al
Al1	1.000	0.775	0.575	0.950	Biso	1.000	Al
Al1	1.000	0.725	0.625	0.000	Biso	1.000	Al
Al1	1.000	0.725	0.675	0.025	Biso	1.000	Al
Al1	1.000	0.775	0.625	0.025	Biso	1.000	Al
Al1	1.000	0.775	0.675	0.000	Biso	1.000	Al
Al1	1.000	0.725	0.625	0.050	Biso	1.000	Al
Al1	1.000	0.725	0.675	0.075	Biso	1.000	Al
Al1	1.000	0.775	0.625	0.075	Biso	1.000	Al
Al1	1.000	0.775	0.675	0.050	Biso	1.000	Al
Al1	1.000	0.725	0.625	0.100	Biso	1.000	Al
Al1	1.000	0.725	0.675	0.125	Biso	1.000	Al
Al1	1.000	0.775	0.625	0.125	Biso	1.000	Al
Al1	1.000	0.775	0.675	0.100	Biso	1.000	Al
Al1	1.000	0.725	0.625	0.150	Biso	1.000	Al
Al1	1.000	0.725	0.675	0.175	Biso	1.000	Al
Al1	1.000	0.775	0.625	0.175	Biso	1.000	Al
Al1	1.000	0.775	0.675	0.150	Biso	1.000	Al
Al1	1.000	0.725	0.625	0.200	Biso	1.000	Al
Al1	1.000	0.725	0.675	0.225	Biso	1.000	Al
Al1	1.000	0.775	0.625	0.225	Biso	1.000	Al
Al1	1.000	0.775	0.675	0.200	Biso	1.000	Al
Al1	1.000	0.725	0.625	0.250	Biso	1.000	Al
Al1	1.000	0.725	0.675	0.275	Biso	1.000	Al
Al1	1.000	0.775	0.625	0.275	Biso	1.000	Al
Al1	1.000	0.775	0.675	0.250	Biso	1.000	Al
Al1	1.000	0.725	0.625	0.300	Biso	1.000	Al
Al1	1.000	0.725	0.675	0.325	Biso	1.000	Al
Al1	1.000	0.775	0.625	0.325	Biso	1.000	Al
Al1	1.000	0.775	0.675	0.300	Biso	1.000	Al
Al1	1.000	0.725	0.625	0.350	Biso	1.000	Al
Al1	1.000	0.725	0.675	0.375	Biso	1.000	Al
Al1	1.000	0.775	0.625	0.375	Biso	1.000	Al
Al1	1.000	0.775	0.675	0.350	Biso	1.000	Al
Al1	1.000	0.725	0.625	0.400	Biso	1.000	Al
Al1	1.000	0.725	0.675	0.425	Biso	1.000	Al
Al1	1.000	0.775	0.625	0.425	Biso	1.000	Al
Al1	1.000	0.775	0.675	0.400	Biso	1.000	Al
Al1	1.000	0.725	0.625	0.450	Biso	1.000	Al
Al1	1.000	0.725	0.675	0.475	Biso	1.000	Al
Al1	1.000	0.775	0.625	0.475	Biso	1.000	Al
Al1	1.000	0.775	0.675	0.450	Biso	1.000	Al
Al1	1.000	0.725	0.625	0.500	Biso	1.000	Al
Al1	1.000	0.725	0.675	0.525	Biso	1.000	Al
Al1	1.000	0.775	0.625	0.525	Biso	1.000	Al
Al1	1.000	0.775	0.675	0.500	Biso	1.000	Al
Al1	1.000	0.725	0.625	0.550	Biso	1.000	Al
Al1	1.000	0.725	0.675	0.575	Biso	1.000	Al
Al1	1.000	0.775	0.625	0.575	Biso	1.000	Al
Al1	1.000	0.775	0.675	0.550	Biso	1.000	Al
Al1	1.000	0.725	0.625	0.600	Biso	1.000	Al
Al1	1.000	0.725	0.675	0.625	Biso	1.000	Al
Al1	1.000	0.775	0.625	0.625	Biso	1.000	Al
Al1	1.000	0.775	0.675	0.600	Biso	1.000	Al
Al1	1.000	0.725	0.625	0.650	Biso	1.000	Al
Al1	1.000	0.725	0.675	0.675	Biso	1.000	Al
Al1	1.000	0.775	0.625	0.675	Biso	1.000	Al
Al1	1.000	0.775	0.675	0.650	Biso	1.000	Al
Al1	1.000	0.725	0.625	0.700	Biso	1.000	Al
Al1	1.000	0.725	0.675	0.725	Biso	1.000	Al
Al1	1.000	0.775	0.625	0.725	Biso	1.000	Al
Al1	1.000	0.775	0.675	0.700	Biso	1.000	Al
Al1	1.000	0.725	0.625	0.750	Biso	1.000	Al
Al1	1.000	0.725	0.675	0.775	Biso	1.000	Al
Al1	1.000	0.775	0.625	0.775	Biso	1.000	Al
Al1	1.000	0.775	0.675	0.750	Biso	1.000	Al
Al1	1.000	0.725	0.625	0.800	Biso	1.000	Al
Al1	1.000	0.725	0.675	0.825	Biso	1.000	Al
Al1	1.000	0.775	0.625	0.825	Biso	1.000	Al
Al1	1.000	0.775	0.675	0.800	Biso	1.000	Al
Al1	1.000	0.725	0.625	0.850	Biso	1.000	Al
Al1	1.000	0.725	0.675	0.875	Biso	1.000	Al
Al1	1.000	0.775	0.625	0.875	Biso	1.000	Al
Al1	1.000	0.775	0.675	0.850	Biso	1.000	Al
Al1	1.000	0.725	0.625	0.900	Biso	1.000	Al
Al1	1.000	0.725	0.675	0.925	Biso	1.000	Al
Al1	1.000	0.775	0.625	0.925	Biso	1.000	Al
Al1	1.000	0.775	0.675	0.900	Biso	1.000	Al
Al1	1.000	0.725	0.625	0.950	Biso	1.000	Al
Al1	1.000	0.725	0.675	0.975	Biso	1.000	Al
Al1	1.000	0.775	0.625	0.975	Biso	1.000	Al
Al1	1.000	0.775	0.675	0.950	Biso	1.000	Al
Al1	1.000	0.725	0.725	0.000	Biso	1.000	Al
Al1	1.000	0.725	0.775	0.025	Biso	1.000	Al
Al1	1.000	0.775	0.725	0.025	Biso	1.000	Al
Al1	1.000	0.775	0.775	0.000	Biso	1.000	Al
Al1	1.000	0.725	0.725	0.050	Biso	1.000	Al
Al1	1.000	0.725	0.775	0.075	Biso	1.000	Al
Al1	1.000	0.775	0.725	0.075	Biso	1.000	Al
Al1	1.000	0.775	0.775	0.050	Biso	1.000	Al
Al1	1.000	0.725	0.725	0.100	Biso	1.000	Al
Al1	1.000	0.725	0.775	0.125	Biso	1.000	Al
Al1	1.000	0.775	0.725	0.125	Biso	1.000	Al
Al1	1.000	0.775	0.775	0.100	Biso	1.000	Al
Al1	1.000	0.725	0.725	0.150	Biso	1.000	Al
Al1	1.000	0.725	0.775	0.175	Biso	1.000	Al
Al1	1.000	0.775	0.725	0.175	Biso	1.000	Al
Al1	1.000	0.775	0.775	0.150	Biso	1.000	Al
Al1	1.000	0.725	0.725	0.200	Biso	1.000	Al
Al1	1.000	0.725	0.775	0.225	Biso	1.000	Al
Al1	1.000	0.775	0.725	0.225	Biso	1.000	Al
Al1	1.000	0.775	0.775	0.200	Biso	1.000	Al
Al1	1.000	0.725	0.725	0.250	Biso	1.000	Al
Al1	1.000	0.725	0.775	0.275	Biso	1.000	Al
Al1	1.000	0.775	0.725	0.275	Biso	1.000	Al
Al1	1.000	0.775	0.775	0.250	Biso	1.000	Al
Al1	1.000	0.725	0.725	0.300	Biso	1.000	Al
Al1	1.000	0.725	0.775	0.325	Biso	1.000	Al
Al1	1.000	0.775	0.725	0.325	Biso	1.000	Al
Al1	1.000	0.775	0.775	0.300	Biso	1.000	Al
Al1	1.000	0.725	0.725	0.350	Biso	1.000	Al
Al1	1.000	0.725	0.775	0.375	Biso	1.000	Al
Al1	1.000	0.775	0.725	0.375	Biso	1.000	Al
Al1	1.000	0.775	0.775	0.350	Biso	1.000	Al
Al1	1.000	0.725	0.725	0.400	Biso	1.000	Al
Al1	1.000	0.725	0.775	0.425	Biso	1.000	Al
Al1	1.000	0.775	0.725	0.425	Biso	1.000	Al
Al1	1.000	0.775	0.775	0.400	Biso	1.000	Al
Al1	1.000	0.725	0.725	0.450	Biso	1.000	Al
Al1	1.000	0.725	0.775	0.475	Biso	1.000	Al
Al1	1.000	0.775	0.725	0.475	Biso	1.000	Al
Al1	1.000	0.775	0.775	0.450	Biso	1.000	Al
Al1	1.000	0.725	0.725	0.500	Biso	1.000	Al
Al1	1.000	0.725	0.775	0.525	Biso	1.000	Al
Al1	1.000	0.775	0.725	0.525	Biso	1.000	Al
Al1	1.000	0.775	0.775	0.500	Biso	1.000	Al
Al1	1.000	0.725	0.725	0.550	Biso	1.000	Al
Al1	1.000	0.725	0.775	0.575	Biso	1.000	Al
Al1	1.000	0.775	0.725	0.575	Biso	1.000	Al
Al1	1.000	0.775	0.775	0.550	Biso	1.000	Al
Al1	1.000	0.725	0.725	0.600	Biso	1.000	Al
Al1	1.000	0.725	0.775	0.625	Biso	1.000	Al
Al1	1.000	0.775	0.725	0.625	Biso	1.000	Al
Al1	1.000	0.775	0.775	0.600	Biso	1.000	Al
Al1	1.000	0.725	0.725	0.650	Biso	1.000	Al
Al1	1.000	0.725	0.775	0.675	Biso	1.000	Al
Al1	1.000	0.775	0.725	0.675	Biso	1.000	Al
Al1	1.000	0.775	0.775	0.650	Biso	1.000	Al
Al1	1.000	0.725	0.725	0.700	Biso	1.000	Al
Al1	1.000	0.725	0.775	0.725	Biso	1.000	Al
Al1	1.000	0.775	0.725	0.725	Biso	1.000	Al
Al1	1.000	0.775	0.775	0.700	Biso	1.000	Al
Al1	1.000	0.725	0.725	0.750	Biso	1.000	Al
Al1	1.000	0.725	0.775	0.775	Biso	1.000	Al
Al1	1.000	0.775	0.725	0.775	Biso	1.000	Al
Al1	1.000	0.775	0.775	0.750	Biso	1.000	Al
Al1	1.000	0.725	0.725	0.800	Biso	1.000	Al
Al1	1.000	0.725	0.775	0.825	Biso	1.000	Al
Al1	1.000	0.775	0.725	0.825	Biso	1.000	Al
Al1	1.000	0.775	0.775	0.800	Biso	1.000	Al
Al1	1.000	0.725	0.725	0.850	Biso	1.000	Al
Al1	1.000	0.725	0.775	0.875	Biso	1.000	Al
Al1	1.000	0.775	0.725	0.875	Biso	1.000	Al
Al1	1.000	0.775	0.775	0.850	Biso	1.000	Al
Al1	1.000	0.725	0.725	0.900	Biso	1.000	Al
Al1	1.000	0.725	0.775	0.925	Biso	1.000	Al
Al1	1.000	0.775	0.725	0.925	Biso	1.000	Al
Al1	1.000	0.775	0.775	0.900	Biso	1.000	Al
Al1	1.000	0.725	0.725	0.950	Biso	1.000	Al
Al1	1.000	0.725	0.775	0.975	Biso	1.000	Al
Al1	1.000	0.775	0.725	0.975	Biso	1.000	Al
Al1	1.000	0.775	0.775	0.950	Biso	1.000	Al
Al1	1.000	0.725	0.825	0.000	Biso	1.000	Al
Al1	1.000	0.725	0.875	0.025	Biso	1.000	Al
Al1	1.000	0.775	0.825	0.025	Biso	1.000	Al
Al1	1.000	0.775	0.875	0.000	Biso	1.000	Al
Al1	1.000	0.725	0.825	0.050	Biso	1.000	Al
Al1	1.000	0.725	0.875	0.075	Biso	1.000	Al
Al1	1.000	0.775	0.825	0.075	Biso	1.000	Al
Al1	1.000	0.775	0.875	0.050	Biso	1.000	Al
Al1	1.000	0.725	0.825	0.100	Biso	1.000	Al
Al1	1.000	0.725	0.875	0.125	Biso	1.000	Al
Al1	1.000	0.775	0.825	0.125	Biso	1.000	Al
Al1	1.000	0.775	0.875	0.100	Biso	1.000	Al
Al1	1.000	0.725	0.825	0.150	Biso	1.000	Al
Al1	1.000	0.725	0.875	0.175	Biso	1.000	Al
Al1	1.000	0.775	0.825	0.175	Biso	1.000	Al
Al1	1.000	0.775	0.875	0.150	Biso	1.000	Al
Al1	1.000	0.725	0.825	0.200	Biso	1.000	Al
Al1	1.000	0.725	0.875	0.225	Biso	1.000	Al
Al1	1.000	0.775	0.825	0.225	Biso	1.000	Al
Al1	1.000	0.775	0.875	0.200	Biso	1.000	Al
Al1	1.000	0.725	0.825	0.250	Biso	1.000	Al
Al1	1.000	0.725	0.875	0.275	Biso	1.000	Al
Al1	1.000	0.775	0.825	0.275	Biso	1.000	Al
Al1	1.000	0.775	0.875	0.250	Biso	1.000	Al
Al1	1.000	0.725	0.825	0.300	Biso	1.000	Al
Al1	1.000	0.725	0.875	0.325	Biso	1.000	Al
Al1	1.000	0.775	0.825	0.325	Biso	1.000	Al
Al1	1.000	0.775	0.875	0.300	Biso	1.000	Al
Al1	1.000	0.725	0.825	0.350	Biso	1.000	Al
Al1	1.000	0.725	0.875	0.375	Biso	1.000	Al
Al1	1.000	0.775	0.825	0.375	Biso	1.000	Al
Al1	1.000	0.775	0.875	0.350	Biso	1.000	Al
Al1	1.000	0.725	0.825	0.400	Biso	1.000	Al
Al1	1.000	0.725	0.875	0.425	Biso	1.000	Al
Al1	1.000	0.775	0.825	0.425	Biso	1.000	Al
Al1	1.000	0.775	0.875	0.400	Biso	1.000	Al
Al1	1.000	0.725	0.825	0.450	Biso	1.000	Al
Al1	1.000	0.725	0.875	0.475	Biso	1.000	Al
Al1	1.000	0.775	0.825	0.475	Biso	1.000	Al
Al1	1.000	0.775	0.875	0.450	Biso	1.000	Al
Al1	1.000	0.725	0.825	0.500	Biso	1.000	Al
Al1	1.000	0.725	0.875	0.525	Biso	1.000	Al
Al1	1.000	0.775	0.825	0.525	Biso	1.000	Al
Al1	1.000	0.775	0.875	0.500	Biso	1.000	Al
Al1	1.000	0.725	0.825	0.550	Biso	1.000	Al
Al1	1.000	0.725	0.875	0.575	Biso	1.000	Al
Al1	1.000	0.775	0.825	0.575	Biso	1.000	Al
Al1	1.000	0.775	0.875	0.550	Biso	1.000	Al
Al1	1.000	0.725	0.825	0.600	Biso	1.000	Al
Al1	1.000	0.725	0.875	0.625	Biso	1.000	Al
Al1	1.000	0.775	0.825	0.625	Biso	1.000	Al
Al1	1.000	0.775	0.875	0.600	Biso	1.000	Al
Al1	1.000	0.725	0.825	0.650	Biso	1.000	Al
Al1	1.000	0.725	0.875	0.675	Biso	1.000	Al
Al1	1.000	0.775	0.825	0.675	Biso	1.000	Al
Al1	1.000	0.775	0.875	0.650	Biso	1.000	Al
Al1	1.000	0.725	0.825	0.700	Biso	1.000	Al
Al1	1.000	0.725	0.875	0.725	Biso	1.000	Al
Al1	1.000	0.775	0.825	0.725	Biso	1.000	Al
Al1	1.000	0.775	0.875	0.700	Biso	1.000	Al
Al1	1.000	0.725	0.825	0.750	Biso	1.000	Al
Al1	1.000	0.725	0.875	0.775	Biso	1.000	Al
Al1	1.000	0.775	0.825	0.775	Biso	1.000	Al
Al1	1.000	0.775	0.875	0.750	Biso	1.000	Al
Al1	1.000	0.725	0.825	0.800	Biso	1.000	Al
Al1	1.000	0.725	0.875	0.825	Biso	1.000	Al
Al1	1.000	0.775	0.825	0.825	Biso	1.000	Al
Al1	1.000	0.775	0.875	0.800	Biso	1.000	Al
Al1	1.000	0.725	0.825	0.850	Biso	1.000	Al
Al1	1.000	0.725	0.875	0.875	Biso	1.000	Al
Al1	1.000	0.775	0.825	0.875	Biso	1.000	Al
Al1	1.000	0.775	0.875	0.850	Biso	1.000	Al
Al1	1.000	0.725	0.825	0.900	Biso	1.000	Al
Al1	1.000	0.725	0.875	0.925	Biso	1.000	Al
Al1	1.000	0.775	0.825	0.925	Biso	1.000	Al
Al1	1.000	0.775	0.875	0.900	Biso	1.000	Al
Al1	1.000	0.725	0.825	0.950	Biso	1.000	Al
Al1	1.000	0.725	0.875	0.975	Biso	1.000	Al
Al1	1.000	0.775	0.825	0.975	Biso	1.000	Al
Al1	1.000	0.775	0.875	0.950	Biso	1.000	Al
Al1	1.000	0.725	0.925	0.000	Biso	1.000	Al
Al1	1.000	0.725	0.975	0.025	Biso	1.000	Al
Al1	1.000	0.775	0.925	0.025	Biso	1.000	Al
Al1	1.000	0.775	0.975	0.000	Biso	1.000	Al
Al1	1.000	0.725	0.925	0.050	Biso	1.000	Al
Al1	1.000	0.725	0.975	0.075	Biso	1.000	Al
Al1	1.000	0.775	0.925	0.075	Biso	1.000	Al
Al1	1.000	0.775	0.975	0.050	Biso	1.000	Al
Al1	1.000	0.725	0.925	0.100	Biso	1.000	Al
Al1	1.000	0.725	0.975	0.125	Biso	1.000	Al
Al1	1.000	0.775	0.925	0.125	Biso	1.000	Al
Al1	1.000	0.775	0.975	0.100	Biso	1.000	Al
Al1	1.000	0.725	0.925	0.150	Biso	1.000	Al
Al1	1.000	0.725	0.975	0.175	Biso	1.000	Al
Al1	1.000	0.775	0.925	0.175	Biso	1.000	Al
Al1	1.000	0.775	0.975	0.150	Biso	1.000	Al
Al1	1.000	0.725	0.925	0.200	Biso	1.000	Al
Al1	1.000	0.725	0.975	0.225	Biso	1.000	Al
Al1	1.000	0.775	0.925	0.225	Biso	1.000	Al
Al1	1.000	0.775	0.975	0.200	Biso	1.000	Al
Al1	1.000	0.725	0.925	0.250	Biso	1.000	Al
Al1	1.000	0.725	0.975	0.275	Biso	1.000	Al
Al1	1.000	0.775	0.925	0.275	Biso	1.000	Al
Al1	1.000	0.775	0.975	0.250	Biso	1.000	Al
Al1	1.000	0.725	0.925	0.300	Biso	1.000	Al
Al1	1.000	0.725	0.975	0.325	Biso	1.000	Al
Al1	1.000	0.775	0.925	0.325	Biso	1.000	Al
Al1	1.000	0.775	0.975	0.300	Biso	1.000	Al
Al1	1.000	0.725	0.925	0.350	Biso	1.000	Al
Al1	1.000	0.725	0.975	0.375	Biso	1.000	Al
Al1	1.000	0.775	0.925	0.375	Biso	1.000	Al
Al1	1.000	0.775	0.975	0.350	Biso	1.000	Al
Al1	1.000	0.725	0.925	0.400	Biso	1.000	Al
Al1	1.000	0.725	0.975	0.425	Biso	1.000	Al
Al1	1.000	0.775	0.925	0.425	Biso	1.000	Al
Al1	1.000	0.775	0.975	0.400	Biso	1.000	Al
Al1	1.000	0.725	0.925	0.450	Biso	1.000	Al
Al1	1.000	0.725	0.975	0.475	Biso	1.000	Al
Al1	1.000	0.775	0.925	0.475	Biso	1.000	Al
Al1	1.000	0.775	0.975	0.450	Biso	1.000	Al
Al1	1.000	0.725	0.925	0.500	Biso	1.000	Al
Al1	1.000	0.725	0.975	0.525	Biso	1.000	Al
Al1	1.000	0.775	0.925	0.525	Biso	1.000	Al
Al1	1.000	0.775	0.975	0.500	Biso	1.000	Al
Al1	1.000	0.725	0.925	0.550	Biso	1.000	Al
Al1	1.000	0.725	0.975	0.575	Biso	1.000	Al
Al1	1.000	0.775	0.925	0.575	Biso	1.000	Al
Al1	1.000	0.775	0.975	0.550	Biso	1.000	Al
Al1	1.000	0.725	0.925	0.600	Biso	1.000	Al
Al1	1.000	0.725	0.975	0.625	Biso	1.000	Al
Al1	1.000	0.775	0.925	0.625	Biso	1.000	Al
Al1	1.000	0.775	0.975	0.600	Biso	1.000	Al
Al1	1.000	0.725	0.925	0.650	Biso	1.000	Al
Al1	1.000	0.725	0.975	0.675	Biso	1.000	Al
Al1	1.000	0.775	0.925	0.675	Biso	1.000	Al
Al1	1.000	0.775	0.975	0.650	Biso	1.000	Al
Al1	1.000	0.725	0.925	0.700	Biso	1.000	Al
Al1	1.000	0.725	0.975	0.725	Biso	1.000	Al
Al1	1.000	0.775	0.925	0.725	Biso	1.000	Al
Al1	1.000	0.775	0.975	0.700	Biso	1.000	Al
Al1	1.000	0.725	0.925	0.750	Biso	1.000	Al
Al1	1.000	0.725	0.975	0.775	Biso	1.000	Al
Al1	1.000	0.775	0.925	0.775	Biso	1.000	Al
Al1	1.000	0.775	0.975	0.750	Biso	1.000	Al
Al1	1.000	0.725	0.925	0.800	Biso	1.000	Al
Al1	1.000	0.725	0.975	0.825	Biso	1.000	Al
Al1	1.000	0.775	0.925	0.825	Biso	1.000	Al
Al1	1.000	0.775	0.975	0.800	Biso	1.000	Al
Al1	1.000	0.725	0.925	0.850	Biso	1.000	Al
Al1	1.000	0.725	0.975	0.875	Biso	1.000	Al
Al1	1.000	0.775	0.925	0.875	Biso	1.000	Al
Al1	1.000	0.775	0.975	0.850	Biso	1.000	Al
Al1	1.000	0.725	0.925	0.900	Biso	1.000	Al
Al1	1.000	0.725	0.975	0.925	Biso	1.000	Al
Al1	1.000	0.775	0.925	0.925	Biso	1.000	Al
Al1	1.000	0.775	0.975	0.900	Biso	1.000	Al
Al1	1.000	0.725	0.925	0.950	Biso	1.000	Al
Al1	1.000	0.725	0.975	0.975	Biso	1.000	Al
Al1	1.000	0.775	0.925	0.975	Biso	1.000	Al
Al1	1.000	0.775	0.975	0.950	Biso	1.000	Al
Al1	1.000	0.825	0.025	0.000	Biso	1.000	Al
Al1	1.000	0.825	0.075	0.025	Biso	1.000	Al
Al1	1.000	0.875	0.025	0.025	Biso	1.000	Al
Al1	1.000	0.875	0.075	0.000	Biso	1.000	Al
Al1	1.000	0.825	0.025	0.050	Biso	1.000	Al
Al1	1.000	0.825	0.075	0.075	Biso	1.000	Al
Al1	1.000	0.875	0.025	0.075	Biso	1.000	Al
Al1	1.000	0.875	0.075	0.050	Biso	1.000	Al
Al1	1.000	0.825	0.025	0.100	Biso	1.000	Al
Al1	1.000	0.825	0.075	0.125	Biso	1.000	Al
Al1	1.000	0.875	0.025	0.125	Biso	1.000	Al
Al1	1.000	0.875	0.075	0.100	Biso	1.000	Al
Al1	1.000	0.825	0.025	0.150	Biso	1.000	Al
Al1	1.000	0.825	0.075	0.175	Biso	1.000	Al
Al1	1.000	0.875	0.025	0.175	Biso	1.000	Al
Al1	1.000	0.875	0.075	0.150	Biso	1.000	Al
Al1	1.000	0.825	0.025	0.200	Biso	1.000	Al
Al1	1.000	0.825	0.075	0.225	Biso	1.000	Al
Al1	1.000	0.875	0.025	0.225	Biso	1.000	Al
Al1	1.000	0.875	0.075	0.200	Biso	1.000	Al
Al1	1.000	0.825	0.025	0.250	Biso	1.000	Al
Al1	1.000	0.825	0.075	0.275	Biso	1.000	Al
Al1	1.000	0.875	0.025	0.275	Biso	1.000	Al
Al1	1.000	0.875	0.075	0.250	Biso	1.000	Al
Al1	1.000	0.825	0.025	0.300	Biso	1.000	Al
Al1	1.000	0.825	0.075	0.325	Biso	1.000	Al
Al1	1.000	0.875	0.025	0.325	Biso	1.000	Al
Al1	1.000	0.875	0.075	0.300	Biso	1.000	Al
Al1	1.000	0.825	0.025	0.350	Biso	1.000	Al
Al1	1.000	0.825	0.075	0.375	Biso	1.000	Al
Al1	1.000	0.875	0.025	0.375	Biso	1.000	Al
Al1	1.000	0.875	0.075	0.350	Biso	1.000	Al
Al1	1.000	0.825	0.025	0.400	Biso	1.000	Al
Al1	1.000	0.825	0.075	0.425	Biso	1.000	Al
Al1	1.000	0.875	0.025	0.425	Biso	1.000	Al
Al1	1.000	0.875	0.075	0.400	Biso	1.000	Al
Al1	1.000	0.825	0.025	0.450	Biso	1.000	Al
Al1	1.000	0.825	0.075	0.475	Biso	1.000	Al
Al1	1.000	0.875	0.025	0.475	Biso	1.000	Al
Al1	1.000	0.875	0.075	0.450	Biso	1.000	Al
Al1	1.000	0.825	0.025	0.500	Biso	1.000	Al
Al1	1.000	0.825	0.075	0.525	Biso	1.000	Al
Al1	1.000	0.875	0.025	0.525	Biso	1.000	Al
Al1	1.000	0.875	0.075	0.500	Biso	1.000	Al
Al1	1.000	0.825	0.025	0.550	Biso	1.000	Al
Al1	1.000	0.825	0.075	0.575	Biso	1.000	Al
Al1	1.000	0.875	0.025	0.575	Biso	1.000	Al
Al1	1.000	0.875	0.075	0.550	Biso	1.000	Al
Al1	1.000	0.825	0.025	0.600	Biso	1.000	Al
Al1	1.000	0.825	0.075	0.625	Biso	1.000	Al
Al1	1.000	0.875	0.025	0.625	Biso	1.000	Al
Al1	1.000	0.875	0.075	0.600	Biso	1.000	Al
Al1	1.000	0.825	0.025	0.650	Biso	1.000	Al
Al1	1.000	0.825	0.075	0.675	Biso	1.000	Al
Al1	1.000	0.875	0.025	0.675	Biso	1.000	Al
Al1	1.000	0.875	0.075	0.650	Biso	1.000	Al
Al1	1.000	0.825	0.025	0.700	Biso	1.000	Al
Al1	1.000	0.825	0.075	0.725	Biso	1.000	Al
Al1	1.000	0.875	0.025	0.725	Biso	1.000	Al
Al1	1.000	0.875	0.075	0.700	Biso	1.000	Al
Al1	1.000	0.825	0.025	0.750	Biso	1.000	Al
Al1	1.000	0.825	0.075	0.775	Biso	1.000	Al
Al1	1.000	0.875	0.025	0.775	Biso	1.000	Al
Al1	1.000	0.875	0.075	0.750	Biso	1.000	Al
Al1	1.000	0.825	0.025	0.800	Biso	1.000	Al
Al1	1.000	0.825	0.075	0.825	Biso	1.000	Al
Al1	1.000	0.875	0.025	0.825	Biso	1.000	Al
Al1	1.000	0.875	0.075	0.800	Biso	1.000	Al
Al1	1.000	0.825	0.025	0.850	Biso	1.000	Al
Al1	1.000	0.825	0.075	0.875	Biso	1.000	Al
Al1	1.000	0.875	0.025	0.875	Biso	1.000	Al
Al1	1.000	0.875	0.075	0.850	Biso	1.000	Al
Al1	1.000	0.825	0.025	0.900	Biso	1.000	Al
Al1	1.000	0.825	0.075	0.925	Biso	1.000	Al
Al1	1.000	0.875	0.025	0.925	Biso	1.000	Al
Al1	1.000	0.875	0.075	0.900	Biso	1.000	Al
Al1	1.000	0.825	0.025	0.950	Biso	1.000	Al
Al1	1.000	0.825	0.075	0.975	Biso	1.000	Al
Al1	1.000	0.875	0.025	0.975	Biso	1.000	Al
Al1	1.000	0.875	0.075	0.950	Biso	1.000	Al
Al1	1.000	0.825	0.125	0.000	Biso	1.000	Al
Al1	1.000	0.825	0.175	0.025	Biso	1.000	Al
Al1	1.000	0.875	0.125	0.025	Biso	1.000	Al
Al1	1.000	0.875	0.175	0.000	Biso	1.000	Al
Al1	1.000	0.825	0.125	0.050	Biso	1.000	Al
Al1	1.000	0.825	0.175	0.075	Biso	1.000	Al
Al1	1.000	0.875	0.125	0.075	Biso	1.000	Al
Al1	1.000	0.875	0.175	0.050	Biso	1.000	Al
Al1	1.000	0.825	0.125	0.100	Biso	1.000	Al
Al1	1.000	0.825	0.175	0.125	Biso	1.000	Al
Al1	1.000	0.875	0.125	0.125	Biso	1.000	Al
Al1	1.000	0.875	0.175	0.100	Biso	1.000	Al
Al1	1.000	0.825	0.125	0.150	Biso	1.000	Al
Al1	1.000	0.825	0.175	0.175	Biso	1.000	Al
Al1	1.000	0.875	0.125	0.175	Biso	1.000	Al
Al1	1.000	0.875	0.175	0.150	Biso	1.000	Al
Al1	1.000	0.825	0.125	0.200	Biso	1.000	Al
Al1	1.000	0.825	0.175	0.225	Biso	1.000	Al
Al1	1.000	0.875	0.125	0.225	Biso	1.000	Al
Al1	1.000	0.875	0.175	0.200	Biso	1.000	Al
Al1	1.000	0.825	0.125	0.250	Biso	1.000	Al
Al1	1.000	0.825	0.175	0.275	Biso	1.000	Al
Al1	1.000	0.875	0.125	0.275	Biso	1.000	Al
Al1	1.000	0.875	0.175	0.250	Biso	1.000	Al
Al1	1.000	0.825	0.125	0.300	Biso	1.000	Al
Al1	1.000	0.825	0.175	0.325	Biso	1.000	Al
Al1	1.000	0.875	0.125	0.325	Biso	1.000	Al
Al1	1.000	0.875	0.175	0.300	Biso	1.000	Al
Al1	1.000	0.825	0.125	0.350	Biso	1.000	Al
Al1	1.000	0.825	0.175	0.375	Biso	1.000	Al
Al1	1.000	0.875	0.125	0.375	Biso	1.000	Al
Al1	1.000	0.875	0.175	0.350	Biso	1.000	Al
Al1	1.000	0.825	0.125	0.400	Biso	1.000	Al
Al1	1.000	0.825	0.175	0.425	Biso	1.000	Al
Al1	1.000	0.875	0.125	0.425	Biso	1.000	Al
Al1	1.000	0.875	0.175	0.400	Biso	1.000	Al
Al1	1.000	0.825	0.125	0.450	Biso	1.000	Al
Al1	1.000	0.825	0.175	0.475	Biso	1.000	Al
Al1	1.000	0.875	0.125	0.475	Biso	1.000	Al
Al1	1.000	0.875	0.175	0.450	Biso	1.000	Al
Al1	1.000	0.825	0.125	0.500	Biso	1.000	Al
Al1	1.000	0.825	0.175	0.525	Biso	1.000	Al
Al1	1.000	0.875	0.125	0.525	Biso	1.000	Al
Al1	1.000	0.875	0.175	0.500	Biso	1.000	Al
Al1	1.000	0.825	0.125	0.550	Biso	1.000	Al
Al1	1.000	0.825	0.175	0.575	Biso	1.000	Al
Al1	1.000	0.875	0.125	0.575	Biso	1.000	Al
Al1	1.000	0.875	0.175	0.550	Biso	1.000	Al
Al1	1.000	0.825	0.125	0.600	Biso	1.000	Al
Al1	1.000	0.825	0.175	0.625	Biso	1.000	Al
Al1	1.000	0.875	0.125	0.625	Biso	1.000	Al
Al1	1.000	0.875	0.175	0.600	Biso	1.000	Al
Al1	1.000	0.825	0.125	0.650	Biso	1.000	Al
Al1	1.000	0.825	0.175	0.675	Biso	1.000	Al
Al1	1.000	0.875	0.125	0.675	Biso	1.000	Al
Al1	1.000	0.875	0.175	0.650	Biso	1.000	Al
Al1	1.000	0.825	0.125	0.700	Biso	1.000	Al
Al1	1.000	0.825	0.175	0.725	Biso	1.000	Al
Al1	1.000	0.875	0.125	0.725	Biso	1.000	Al
Al1	1.000	0.875	0.175	0.700	Biso	1.000	Al
Al1	1.000	0.825	0.125	0.750	Biso	1.000	Al
Al1	1.000	0.825	0.175	0.775	Biso	1.000	Al
Al1	1.000	0.875	0.125	0.775	Biso	1.000	Al
Al1	1.000	0.875	0.175	0.750	Biso	1.000	Al
Al1	1.000	0.825	0.125	0.800	Biso	1.000	Al
Al1	1.000	0.825	0.175	0.825	Biso	1.000	Al
Al1	1.000	0.875	0.125	0.825	Biso	1.000	Al
Al1	1.000	0.875	0.175	0.800	Biso	1.000	Al
Al1	1.000	0.825	0.125	0.850	Biso	1.000	Al
Al1	1.000	0.825	0.175	0.875	Biso	1.000	Al
Al1	1.000	0.875	0.125	0.875	Biso	1.000	Al
Al1	1.000	0.875	0.175	0.850	Biso	1.000	Al
Al1	1.000	0.825	0.125	0.900	Biso	1.000	Al
Al1	1.000	0.825	0.175	0.925	Biso	1.000	Al
Al1	1.000	0.875	0.125	0.925	Biso	1.000	Al
Al1	1.000	0.875	0.175	0.900	Biso	1.000	Al
Al1	1.000	0.825	0.125	0.950	Biso	1.000	Al
Al1	1.000	0.825	0.175	0.975	Biso	1.000	Al
Al1	1.000	0.875	0.125	0.975	Biso	1.000	Al
Al1	1.000	0.875	0.175	0.950	Biso	1.000	Al
Al1	1.000	0.825	0.225	0.000	Biso	1.000	Al
Al1	1.000	0.825	0.275	0.025	Biso	1.000	Al
Al1	1.000	0.875	0.225	0.025	Biso	1.000	Al
Al1	1.000	0.875	0.275	0.000	Biso	1.000	Al
Al1	1.000	0.825	0.225	0.050	Biso	1.000	Al
Al1	1.000	0.825	0.275	0.075	Biso	1.000	Al
Al1	1.000	0.875	0.225	0.075	Biso	1.000	Al
Al1	1.000	0.875	0.275	0.050	Biso	1.000	Al
Al1	1.000	0.825	0.225	0.100	Biso	1.000	Al
Al1	1.000	0.825	0.275	0.125	Biso	1.000	Al
Al1	1.000	0.875	0.225	0.125	Biso	1.000	Al
Al1	1.000	0.875	0.275	0.100	Biso	1.000	Al
Al1	1.000	0.825	0.225	0.150	Biso	1.000	Al
Al1	1.000	0.825	0.275	0.175	Biso	1.000	Al
Al1	1.000	0.875	0.225	0.175	Biso	1.000	Al
Al1	1.000	0.875	0.275	0.150	Biso	1.000	Al
Al1	1.000	0.825	0.225	0.200	Biso	1.000	Al
Al1	1.000	0.825	0.275	0.225	Biso	1.000	Al
Al1	1.000	0.875	0.225	0.225	Biso	1.000	Al
Al1	1.000	0.875	0.275	0.200	Biso	1.000	Al
Al1	1.000	0.825	0.225	0.250	Biso	1.000	Al
Al1	1.000	0.825	0.275	0.275	Biso	1.000	Al
Al1	1.000	0.875	0.225	0.275	Biso	1.000	Al
Al1	1.000	0.875	0.275	0.250	Biso	1.000	Al
Al1	1.000	0.825	0.225	0.300	Biso	1.000	Al
Al1	1.000	0.825	0.275	0.325	Biso	1.000	Al
Al1	1.000	0.875	0.225	0.325	Biso	1.000	Al
Al1	1.000	0.875	0.275	0.300	Biso	1.000	Al
Al1	1.000	0.825	0.225	0.350	Biso	1.000	Al
Al1	1.000	0.825	0.275	0.375	Biso	1.000	Al
Al1	1.000	0.875	0.225	0.375	Biso	1.000	Al
Al1	1.000	0.875	0.275	0.350	Biso	1.000	Al
Al1	1.000	0.825	0.225	0.400	Biso	1.000	Al
Al1	1.000	0.825	0.275	0.425	Biso	1.000	Al
Al1	1.000	0.875	0.225	0.425	Biso	1.000	Al
Al1	1.000	0.875	0.275	0.400	Biso	1.000	Al
Al1	1.000	0.825	0.225	0.450	Biso	1.000	Al
Al1	1.000	0.825	0.275	0.475	Biso	1.000	Al
Al1	1.000	0.875	0.225	0.475	Biso	1.000	Al
Al1	1.000	0.875	0.275	0.450	Biso	1.000	Al
Al1	1.000	0.825	0.225	0.500	Biso	1.000	Al
Al1	1.000	0.825	0.275	0.525	Biso	1.000	Al
Al1	1.000	0.875	0.225	0.525	Biso	1.000	Al
Al1	1.000	0.875	0.275	0.500	Biso	1.000	Al
Al1	1.000	0.825	0.225	0.550	Biso	1.000	Al
Al1	1.000	0.825	0.275	0.575	Biso	1.000	Al
Al1	1.000	0.875	0.225	0.575	Biso	1.000	Al
Al1	1.000	0.875	0.275	0.550	Biso	1.000	Al
Al1	1.000	0.825	0.225	0.600	Biso	1.000	Al
Al1	1.000	0.825	0.275	0.625	Biso	1.000	Al
Al1	1.000	0.875	0.225	0.625	Biso	1.000	Al
Al1	1.000	0.875	0.275	0.600	Biso	1.000	Al
Al1	1.000	0.825	0.225	0.650	Biso	1.000	Al
Al1	1.000	0.825	0.275	0.675	Biso	1.000	Al
Al1	1.000	0.875	0.225	0.675	Biso	1.000	Al
Al1	1.000	0.875	0.275	0.650	Biso	1.000	Al
Al1	1.000	0.825	0.225	0.700	Biso	1.000	Al
Al1	1.000	0.825	0.275	0.725	Biso	1.000	Al
Al1	1.000	0.875	0.225	0.725	Biso	1.000	Al
Al1	1.000	0.875	0.275	0.700	Biso	1.000	Al
Al1	1.000	0.825	0.225	0.750	Biso	1.000	Al
Al1	1.000	0.825	0.275	0.775	Biso	1.000	Al
Al1	1.000	0.875	0.225	0.775	Biso	1.000	Al
Al1	1.000	0.875	0.275	0.750	Biso	1.000	Al
Al1	1.000	0.825	0.225	0.800	Biso	1.000	Al
Al1	1.000	0.825	0.275	0.825	Biso	1.000	Al
Al1	1.000	0.875	0.225	0.825	Biso	1.000	Al
Al1	1.000	0.875	0.275	0.800	Biso	1.000	Al
Al1	1.000	0.825	0.225	0.850	Biso	1.000	Al
Al1	1.000	0.825	0.275	0.875	Biso	1.000	Al
Al1	1.000	0.875	0.225	0.875	Biso	1.000	Al
Al1	1.000	0.875	0.275	0.850	Biso	1.000	Al
Al1	1.000	0.825	0.225	0.900	Biso	1.000	Al
Al1	1.000	0.825	0.275	0.925	Biso	1.000	Al
Al1	1.000	0.875	0.225	0.925	Biso	1.000	Al
Al1	1.000	0.875	0.275	0.900	Biso	1.000	Al
Al1	1.000	0.825	0.225	0.950	Biso	1.000	Al
Al1	1.000	0.825	0.275	0.975	Biso	1.000	Al
Al1	1.000	0.875	0.225	0.975	Biso	1.000	Al
Al1	1.000	0.875	0.275	0.950	Biso	1.000	Al
Al1	1.000	0.825	0.325	0.000	Biso	1.000	Al
Al1	1.000	0.825	0.375	0.025	Biso	1.000	Al
Al1	1.000	0.875	0.325	0.025	Biso	1.000	Al
Al1	1.000	0.875	0.375	0.000	Biso	1.000	Al
Al1	1.000	0.825	0.325	0.050	Biso	1.000	Al
Al1	1.000	0.825	0.375	0.075	Biso	1.000	Al
Al1	1.000	0.875	0.325	0.075	Biso	1.000	Al
Al1	1.000	0.875	0.375	0.050	Biso	1.000	Al
Al1	1.000	0.825	0.325	0.100	Biso	1.000	Al
Al1	1.000	0.825	0.375	0.125	Biso	1.000	Al
Al1	1.000	0.875	0.325	0.125	Biso	1.000	Al
Al1	1.000	0.875	0.375	0.100	Biso	1.000	Al
Al1	1.000	0.825	0.325	0.150	Biso	1.000	Al
Al1	1.000	0.825	0.375	0.175	Biso	1.000	Al
Al1	1.000	0.875	0.325	0.175	Biso	1.000	Al
Al1	1.000	0.875	0.375	0.150	Biso	1.000	Al
Al1	1.000	0.825	0.325	0.200	Biso	1.000	Al
Al1	1.000	0.825	0.375	0.225	Biso	1.000	Al
Al1	1.000	0.875	0.325	0.225	Biso	1.000	Al
Al1	1.000	0.875	0.375	0.200	Biso	1.000	Al
Al1	1.000	0.825	0.325	0.250	Biso	1.000	Al
Al1	1.000	0.825	0.375	0.275	Biso	1.000	Al
Al1	1.000	0.875	0.325	0.275	Biso	1.000	Al
Al1	1.000	0.875	0.375	0.250	Biso	1.000	Al
Al1	1.000	0.825	0.325	0.300	Biso	1.000	Al
Al1	1.000	0.825	0.375	0.325	Biso	1.000	Al
Al1	1.000	0.875	0.325	0.325	Biso	1.000	Al
Al1	1.000	0.875	0.375	0.300	Biso	1.000	Al
Al1	1.000	0.825	0.325	0.350	Biso	1.000	Al
Al1	1.000	0.825	0.375	0.375	Biso	1.000	Al
Al1	1.000	0.875	0.325	0.375	Biso	1.000	Al
Al1	1.000	0.875	0.375	0.350	Biso	1.000	Al
Al1	1.000	0.825	0.325	0.400	Biso	1.000	Al
Al1	1.000	0.825	0.375	0.425	Biso	1.000	Al
Al1	1.000	0.875	0.325	0.425	Biso	1.000	Al
Al1	1.000	0.875	0.375	0.400	Biso	1.000	Al
Al1	1.000	0.825	0.325	0.450	Biso	1.000	Al
Al1	1.000	0.825	0.375	0.475	Biso	1.000	Al
Al1	1.000	0.875	0.325	0.475	Biso	1.000	Al
Al1	1.000	0.875	0.375	0.450	Biso	1.000	Al
Al1	1.000	0.825	0.325	0.500	Biso	1.000	Al
Al1	1.000	0.825	0.375	0.525	Biso	1.000	Al
Al1	1.000	0.875	0.325	0.525	Biso	1.000	Al
Al1	1.000	0.875	0.375	0.500	Biso	1.000	Al
Al1	1.000	0.825	0.325	0.550	Biso	1.000	Al
Al1	1.000	0.825	0.375	0.575	Biso	1.000	Al
Al1	1.000	0.875	0.325	0.575	Biso	1.000	Al
Al1	1.000	0.875	0.375	0.550	Biso	1.000	Al
Al1	1.000	0.825	0.325	0.600	Biso	1.000	Al
Al1	1.000	0.825	0.375	0.625	Biso	1.000	Al
Al1	1.000	0.875	0.325	0.625	Biso	1.000	Al
Al1	1.000	0.875	0.375	0.600	Biso	1.000	Al
Al1	1.000	0.825	0.325	0.650	Biso	1.000	Al
Al1	1.000	0.825	0.375	0.675	Biso	1.000	Al
Al1	1.000	0.875	0.325	0.675	Biso	1.000	Al
Al1	1.000	0.875	0.375	0.650	Biso	1.000	Al
Al1	1.000	0.825	0.325	0.700	Biso	1.000	Al
Al1	1.000	0.825	0.375	0.725	Biso	1.000	Al
Al1	1.000	0.875	0.325	0.725	Biso	1.000	Al
Al1	1.000	0.875	0.375	0.700	Biso	1.000	Al
Al1	1.000	0.825	0.325	0.750	Biso	1.000	Al
Al1	1.000	0.825	0.375	0.775	Biso	1.000	Al
Al1	1.000	0.875	0.325	0.775	Biso	1.000	Al
Al1	1.000	0.875	0.375	0.750	Biso	1.000	Al
Al1	1.000	0.825	0.325	0.800	Biso	1.000	Al
Al1	1.000	0.825	0.375	0.825	Biso	1.000	Al
Al1	1.000	0.875	0.325	0.825	Biso	1.000	Al
Al1	1.000	0.875	0.375	0.800	Biso	1.000	Al
Al1	1.000	0.825	0.325	0.850	Biso	1.000	Al
Al1	1.000	0.825	0.375	0.875	Biso	1.000	Al
Al1	1.000	0.875	0.325	0.875	Biso	1.000	Al
Al1	1.000	0.875	0.375	0.850	Biso	1.000	Al
Al1	1.000	0.825	0.325	0.900	Biso	1.000	Al
Al1	1.000	0.825	0.375	0.925	Biso	1.000	Al
Al1	1.000	0.875	0.325	0.925	Biso	1.000	Al
Al1	1.000	0.875	0.375	0.900	Biso	1.000	Al
Al1	1.000	0.825	0.325	0.950	Biso	1.000	Al
Al1	1.000	0.825	0.375	0.975	Biso	1.000	Al
Al1	1.000	0.875	0.325	0.975	Biso	1.000	Al
Al1	1.000	0.875	0.375	0.950	Biso	1.000	Al
Al1	1.000	0.825	0.425	0.000	Biso	1.000	Al
Al1	1.000	0.825	0.475	0.025	Biso	1.000	Al
Al1	1.000	0.875	0.425	0.025	Biso	1.000	Al
Al1	1.000	0.875	0.475	0.000	Biso	1.000	Al
Al1	1.000	0.825	0.425	0.050	Biso	1.000	Al
Al1	1.000	0.825	0.475	0.075	Biso	1.000	Al
Al1	1.000	0.875	0.425	0.075	Biso	1.000	Al
Al1	1.000	0.875	0.475	0.050	Biso	1.000	Al
Al1	1.000	0.825	0.425	0.100	Biso	1.000	Al
Al1	1.000	0.825	0.475	0.125	Biso	1.000	Al
Al1	1.000	0.875	0.425	0.125	Biso	1.000	Al
Al1	1.000	0.875	0.475	0.100	Biso	1.000	Al
Al1	1.000	0.825	0.425	0.150	Biso	1.000	Al
Al1	1.000	0.825	0.475	0.175	Biso	1.000	Al
Al1	1.000	0.875	0.425	0.175	Biso	1.000	Al
Al1	1.000	0.875	0.475	0.150	Biso	1.000	Al
Al1	1.000	0.825	0.425	0.200	Biso	1.000	Al
Al1	1.000	0.825	0.475	0.225	Biso	1.000	Al
Al1	1.000	0.875	0.425	0.225	Biso	1.000	Al
Al1	1.000	0.875	0.475	0.200	Biso	1.000	Al
Al1	1.000	0.825	0.425	0.250	Biso	1.000	Al
Al1	1.000	0.825	0.475	0.275	Biso	1.000	Al
Al1	1.000	0.875	0.425	0.275	Biso	1.000	Al
Al1	1.000	0.875	0.475	0.250	Biso	1.000	Al
Al1	1.000	0.825	0.425	0.300	Biso	1.000	Al
Al1	1.000	0.825	0.475	0.325	Biso	1.000	Al
Al1	1.000	0.875	0.425	0.325	Biso	1.000	Al
Al1	1.000	0.875	0.475	0.300	Biso	1.000	Al
Al1	1.000	0.825	0.425	0.350	Biso	1.000	Al
Al1	1.000	0.825	0.475	0.375	Biso	1.000	Al
Al1	1.000	0.875	0.425	0.375	Biso	1.000	Al
Al1	1.000	0.875	0.475	0.350	Biso	1.000	Al
Al1	1.000	0.825	0.425	0.400	Biso	1.000	Al
Al1	1.000	0.825	0.475	0.425	Biso	1.000	Al
Al1	1.000	0.875	0.425	0.425	Biso	1.000	Al
Al1	1.000	0.875	0.475	0.400	Biso	1.000	Al
Al1	1.000	0.825	0.425	0.450	Biso	1.000	Al
Al1	1.000	0.825	0.475	0.475	Biso	1.000	Al
Al1	1.000	0.875	0.425	0.475	Biso	1.000	Al
Al1	1.000	0.875	0.475	0.450	Biso	1.000	Al
Al1	1.000	0.825	0.425	0.500	Biso	1.000	Al
Al1	1.000	0.825	0.475	0.525	Biso	1.000	Al
Al1	1.000	0.875	0.425	0.525	Biso	1.000	Al
Al1	1.000	0.875	0.475	0.500	Biso	1.000	Al
Al1	1.000	0.825	0.425	0.550	Biso	1.000	Al
Al1	1.000	0.825	0.475	0.575	Biso	1.000	Al
Al1	1.000	0.875	0.425	0.575	Biso	1.000	Al
Al1	1.000	0.875	0.475	0.550	Biso	1.000	Al
Al1	1.000	0.825	0.425	0.600	Biso	1.000	Al
Al1	1.000	0.825	0.475	0.625	Biso	1.000	Al
Al1	1.000	0.875	0.425	0.625	Biso	1.000	Al
Al1	1.000	0.875	0.475	0.600	Biso	1.000	Al
Al1	1.000	0.825	0.425	0.650	Biso	1.000	Al
Al1	1.000	0.825	0.475	0.675	Biso	1.000	Al
Al1	1.000	0.875	0.425	0.675	Biso	1.000	Al
Al1	1.000	0.875	0.475	0.650	Biso	1.000	Al
Al1	1.000	0.825	0.425	0.700	Biso	1.000	Al
Al1	1.000	0.825	0.475	0.725	Biso	1.000	Al
Al1	1.000	0.875	0.425	0.725	Biso	1.000	Al
Al1	1.000	0.875	0.475	0.700	Biso	1.000	Al
Al1	1.000	0.825	0.425	0.750	Biso	1.000	Al
Al1	1.000	0.825	0.475	0.775	Biso	1.000	Al
Al1	1.000	0.875	0.425	0.775	Biso	1.000	Al
Al1	1.000	0.875	0.475	0.750	Biso	1.000	Al
Al1	1.000	0.825	0.425	0.800	Biso	1.000	Al
Al1	1.000	0.825	0.475	0.825	Biso	1.000	Al
Al1	1.000	0.875	0.425	0.825	Biso	1.000	Al
Al1	1.000	0.875	0.475	0.800	Biso	1.000	Al
Al1	1.000	0.825	0.425	0.850	Biso	1.000	Al
Al1	1.000	0.825	0.475	0.875	Biso	1.000	Al
Al1	1.000	0.875	0.425	0.875	Biso	1.000	Al
Al1	1.000	0.875	0.475	0.850	Biso	1.000	Al
Al1	1.000	0.825	0.425	0.900	Biso	1.000	Al
Al1	1.000	0.825	0.475	0.925	Biso	1.000	Al
Al1	1.000	0.875	0.425	0.925	Biso	1.000	Al
Al1	1.000	0.875	0.475	0.900	Biso	1.000	Al
Al1	1.000	0.825	0.425	0.950	Biso	1.000	Al
Al1	1.000	0.825	0.475	0.975	Biso	1.000	Al
Al1	1.000	0.875	0.425	0.975	Biso	1.000	Al
Al1	1.000	0.875	0.475	0.950	Biso	1.000	Al
Al1	1.000	0.825	0.525	0.000	Biso	1.000	Al
Al1	1.000	0.825	0.575	0.025	Biso	1.000	Al
Al1	1.000	0.875	0.525	0.025	Biso	1.000	Al
Al1	1.000	0.875	0.575	0.000	Biso	1.000	Al
Al1	1.000	0.825	0.525	0.050	Biso	1.000	Al
Al1	1.000	0.825	0.575	0.075	Biso	1.000	Al
Al1	1.000	0.875	0.525	0.075	Biso	1.000	Al
Al1	1.000	0.875	0.575	0.050	Biso	1.000	Al
Al1	1.000	0.825	0.525	0.100	Biso	1.000	Al
Al1	1.000	0.825	0.575	0.125	Biso	1.000	Al
Al1	1.000	0.875	0.525	0.125	Biso	1.000	Al
Al1	1.000	0.875	0.575	0.100	Biso	1.000	Al
Al1	1.000	0.825	0.525	0.150	Biso	1.000	Al
Al1	1.000	0.825	0.575	0.175	Biso	1.000	Al
Al1	1.000	0.875	0.525	0.175	Biso	1.000	Al
Al1	1.000	0.875	0.575	0.150	Biso	1.000	Al
Al1	1.000	0.825	0.525	0.200	Biso	1.000	Al
Al1	1.000	0.825	0.575	0.225	Biso	1.000	Al
Al1	1.000	0.875	0.525	0.225	Biso	1.000	Al
Al1	1.000	0.875	0.575	0.200	Biso	1.000	Al
Al1	1.000	0.825	0.525	0.250	Biso	1.000	Al
Al1	1.000	0.825	0.575	0.275	Biso	1.000	Al
Al1	1.000	0.875	0.525	0.275	Biso	1.000	Al
Al1	1.000	0.875	0.575	0.250	Biso	1.000	Al
Al1	1.000	0.825	0.525	0.300	Biso	1.000	Al
Al1	1.000	0.825	0.575	0.325	Biso	1.000	Al
Al1	1.000	0.875	0.525	0.325	Biso	1.000	Al
Al1	1.000	0.875	0.575	0.300	Biso	1.000	Al
Al1	1.000	0.825	0.525	0.350	Biso	1.000	Al
Al1	1.000	0.825	0.575	0.375	Biso	1.000	Al
Al1	1.000	0.875	0.525	0.375	Biso	1.000	Al
Al1	1.000	0.875	0.575	0.350	Biso	1.000	Al
Al1	1.000	0.825	0.525	0.400	Biso	1.000	Al
Al1	1.000	0.825	0.575	0.425	Biso	1.000	Al
Al1	1.000	0.875	0.525	0.425	Biso	1.000	Al
Al1	1.000	0.875	0.575	0.400	Biso	1.000	Al
Al1	1.000	0.825	0.525	0.450	Biso	1.000	Al
Al1	1.000	0.825	0.575	0.475	Biso	1.000	Al
Al1	1.000	0.875	0.525	0.475	Biso	1.000	Al
Al1	1.000	0.875	0.575	0.450	Biso	1.000	Al
Al1	1.000	0.825	0.525	0.500	Biso	1.000	Al
Al1	1.000	0.825	0.575	0.525	Biso	1.000	Al
Al1	1.000	0.875	0.525	0.525	Biso	1.000	Al
Al1	1.000	0.875	0.575	0.500	Biso	1.000	Al
Al1	1.000	0.825	0.525	0.550	Biso	1.000	Al
Al1	1.000	0.825	0.575	0.575	Biso	1.000	Al
Al1	1.000	0.875	0.525	0.575	Biso	1.000	Al
Al1	1.000	0.875	0.575	0.550	Biso	1.000	Al
Al1	1.000	0.825	0.525	0.600	Biso	1.000	Al
Al1	1.000	0.825	0.575	0.625	Biso	1.000	Al
Al1	1.000	0.875	0.525	0.625	Biso	1.000	Al
Al1	1.000	0.875	0.575	0.600	Biso	1.000	Al
Al1	1.000	0.825	0.525	0.650	Biso	1.000	Al
Al1	1.000	0.825	0.575	0.675	Biso	1.000	Al
Al1	1.000	0.875	0.525	0.675	Biso	1.000	Al
Al1	1.000	0.875	0.575	0.650	Biso	1.000	Al
Al1	1.000	0.825	0.525	0.700	Biso	1.000	Al
Al1	1.000	0.825	0.575	0.725	Biso	1.000	Al
Al1	1.000	0.875	0.525	0.725	Biso	1.000	Al
Al1	1.000	0.875	0.575	0.700	Biso	1.000	Al
Al1	1.000	0.825	0.525	0.750	Biso	1.000	Al
Al1	1.000	0.825	0.575	0.775	Biso	1.000	Al
Al1	1.000	0.875	0.525	0.775	Biso	1.000	Al
Al1	1.000	0.875	0.575	0.750	Biso	1.000	Al
Al1	1.000	0.825	0.525	0.800	Biso	1.000	Al
Al1	1.000	0.825	0.575	0.825	Biso	1.000	Al
Al1	1.000	0.875	0.525	0.825	Biso	1.000	Al
Al1	1.000	0.875	0.575	0.800	Biso	1.000	Al
Al1	1.000	0.825	0.525	0.850	Biso	1.000	Al
Al1	1.000	0.825	0.575	0.875	Biso	1.000	Al
Al1	1.000	0.875	0.525	0.875	Biso	1.000	Al
Al1	1.000	0.875	0.575	0.850	Biso	1.000	Al
Al1	1.000	0.825	0.525	0.900	Biso	1.000	Al
Al1	1.000	0.825	0.575	0.925	Biso	1.000	Al
Al1	1.000	0.875	0.525	0.925	Biso	1.000	Al
Al1	1.000	0.875	0.575	0.900	Biso	1.000	Al
Al1	1.000	0.825	0.525	0.950	Biso	1.000	Al
Al1	1.000	0.825	0.575	0.975	Biso	1.000	Al
Al1	1.000	0.875	0.525	0.975	Biso	1.000	Al
Al1	1.000	0.875	0.575	0.950	Biso	1.000	Al
Al1	1.000	0.825	0.625	0.000	Biso	1.000	Al
Al1	1.000	0.825	0.675	0.025	Biso	1.000	Al
Al1	1.000	0.875	0.625	0.025	Biso	1.000	Al
Al1	1.000	0.875	0.675	0.000	Biso	1.000	Al
Al1	1.000	0.825	0.625	0.050	Biso	1.000	Al
Al1	1.000	0.825	0.675	0.075	Biso	1.000	Al
Al1	1.000	0.875	0.625	0.075	Biso	1.000	Al
Al1	1.000	0.875	0.675	0.050	Biso	1.000	Al
Al1	1.000	0.825	0.625	0.100	Biso	1.000	Al
Al1	1.000	0.825	0.675	0.125	Biso	1.000	Al
Al1	1.000	0.875	0.625	0.125	Biso	1.000	Al
Al1	1.000	0.875	0.675	0.100	Biso	1.000	Al
Al1	1.000	0.825	0.625	0.150	Biso	1.000	Al
Al1	1.000	0.825	0.675	0.175	Biso	1.000	Al
Al1	1.000	0.875	0.625	0.175	Biso	1.000	Al
Al1	1.000	0.875	0.675	0.150	Biso	1.000	Al
Al1	1.000	0.825	0.625	0.200	Biso	1.000	Al
Al1	1.000	0.825	0.675	0.225	Biso	1.000	Al
Al1	1.000	0.875	0.625	0.225	Biso	1.000	Al
Al1	1.000	0.875	0.675	0.200	Biso	1.000	Al
Al1	1.000	0.825	0.625	0.250	Biso	1.000	Al
Al1	1.000	0.825	0.675	0.275	Biso	1.000	Al
Al1	1.000	0.875	0.625	0.275	Biso	1.000	Al
Al1	1.000	0.875	0.675	0.250	Biso	1.000	Al
Al1	1.000	0.825	0.625	0.300	Biso	1.000	Al
Al1	1.000	0.825	0.675	0.325	Biso	1.000	Al
Al1	1.000	0.875	0.625	0.325	Biso	1.000	Al
Al1	1.000	0.875	0.675	0.300	Biso	1.000	Al
Al1	1.000	0.825	0.625	0.350	Biso	1.000	Al
Al1	1.000	0.825	0.675	0.375	Biso	1.000	Al
Al1	1.000	0.875	0.625	0.375	Biso	1.000	Al
Al1	1.000	0.875	0.675	0.350	Biso	1.000	Al
Al1	1.000	0.825	0.625	0.400	Biso	1.000	Al
Al1	1.000	0.825	0.675	0.425	Biso	1.000	Al
Al1	1.000	0.875	0.625	0.425	Biso	1.000	Al
Al1	1.000	0.875	0.675	0.400	Biso	1.000	Al
Al1	1.000	0.825	0.625	0.450	Biso	1.000	Al
Al1	1.000	0.825	0.675	0.475	Biso	1.000	Al
Al1	1.000	0.875	0.625	0.475	Biso	1.000	Al
Al1	1.000	0.875	0.675	0.450	Biso	1.000	Al
Al1	1.000	0.825	0.625	0.500	Biso	1.000	Al
Al1	1.000	0.825	0.675	0.525	Biso	1.000	Al
Al1	1.000	0.875	0.625	0.525	Biso	1.000	Al
Al1	1.000	0.875	0.675	0.500	Biso	1.000	Al
Al1	1.000	0.825	0.625	0.550	Biso	1.000	Al
Al1	1.000	0.825	0.675	0.575	Biso	1.000	Al
Al1	1.000	0.875	0.625	0.575	Biso	1.000	Al
Al1	1.000	0.875	0.675	0.550	Biso	1.000	Al
Al1	1.000	0.825	0.625	0.600	Biso	1.000	Al
Al1	1.000	0.825	0.675	0.625	Biso	1.000	Al
Al1	1.000	0.875	0.625	0.625	Biso	1.000	Al
Al1	1.000	0.875	0.675	0.600	Biso	1.000	Al
Al1	1.000	0.825	0.625	0.650	Biso	1.000	Al
Al1	1.000	0.825	0.675	0.675	Biso	1.000	Al
Al1	1.000	0.875	0.625	0.675	Biso	1.000	Al
Al1	1.000	0.875	0.675	0.650	Biso	1.000	Al
Al1	1.000	0.825	0.625	0.700	Biso	1.000	Al
Al1	1.000	0.825	0.675	0.725	Biso	1.000	Al
Al1	1.000	0.875	0.625	0.725	Biso	1.000	Al
Al1	1.000	0.875	0.675	0.700	Biso	1.000	Al
Al1	1.000	0.825	0.625	0.750	Biso	1.000	Al
Al1	1.000	0.825	0.675	0.775	Biso	1.000	Al
Al1	1.000	0.875	0.625	0.775	Biso	1.000	Al
Al1	1.000	0.875	0.675	0.750	Biso	1.000	Al
Al1	1.000	0.825	0.625	0.800	Biso	1.000	Al
Al1	1.000	0.825	0.675	0.825	Biso	1.000	Al
Al1	1.000	0.875	0.625	0.825	Biso	1.000	Al
Al1	1.000	0.875	0.675	0.800	Biso	1.000	Al
Al1	1.000	0.825	0.625	0.850	Biso	1.000	Al
Al1	1.000	0.825	0.675	0.875	Biso	1.000	Al
Al1	1.000	0.875	0.625	0.875	Biso	1.000	Al
Al1	1.000	0.875	0.675	0.850	Biso	1.000	Al
Al1	1.000	0.825	0.625	0.900	Biso	1.000	Al
Al1	1.000	0.825	0.675	0.925	Biso	1.000	Al
Al1	1.000	0.875	0.625	0.925	Biso	1.000	Al
Al1	1.000	0.875	0.675	0.900	Biso	1.000	Al
Al1	1.000	0.825	0.625	0.950	Biso	1.000	Al
Al1	1.000	0.825	0.675	0.975	Biso	1.000	Al
Al1	1.000	0.875	0.625	0.975	Biso	1.000	Al
Al1	1.000	0.875	0.675	0.950	Biso	1.000	Al
Al1	1.000	0.825	0.725	0.000	Biso	1.000	Al
Al1	1.000	0.825	0.775	0.025	Biso	1.000	Al
Al1	1.000	0.875	0.725	0.025	Biso	1.000	Al
Al1	1.000	0.875	0.775	0.000	Biso	1.000	Al
Al1	1.000	0.825	0.725	0.050	Biso	1.000	Al
Al1	1.000	0.825	0.775	0.075	Biso	1.000	Al
Al1	1.000	0.875	0.725	0.075	Biso	1.000	Al
Al1	1.000	0.875	0.775	0.050	Biso	1.000	Al
Al1	1.000	0.825	0.725	0.100	Biso	1.000	Al
Al1	1.000	0.825	0.775	0.125	Biso	1.000	Al
Al1	1.000	0.875	0.725	0.125	Biso	1.000	Al
Al1	1.000	0.875	0.775	0.100	Biso	1.000	Al
Al1	1.000	0.825	0.725	0.150	Biso	1.000	Al
Al1	1.000	0.825	0.775	0.175	Biso	1.000	Al
Al1	1.000	0.875	0.725	0.175	Biso	1.000	Al
Al1	1.000	0.875	0.775	0.150	Biso	1.000	Al
Al1	1.000	0.825	0.725	0.200	Biso	1.000	Al
Al1	1.000	0.825	0.775	0.225	Biso	1.000	Al
Al1	1.000	0.875	0.725	0.225	Biso	1.000	Al
Al1	1.000	0.875	0.775	0.200	Biso	1.000	Al
Al1	1.000	0.825	0.725	0.250	Biso	1.000	Al
Al1	1.000	0.825	0.775	0.275	Biso	1.000	Al
Al1	1.000	0.875	0.725	0.275	Biso	1.000	Al
Al1	1.000	0.875	0.775	0.250	Biso	1.000	Al
Al1	1.000	0.825	0.725	0.300	Biso	1.000	Al
Al1	1.000	0.825	0.775	0.325	Biso	1.000	Al
Al1	1.000	0.875	0.725	0.325	Biso	1.000	Al
Al1	1.000	0.875	0.775	0.300	Biso	1.000	Al
Al1	1.000	0.825	0.725	0.350	Biso	1.000	Al
Al1	1.000	0.825	0.775	0.375	Biso	1.000	Al
Al1	1.000	0.875	0.725	0.375	Biso	1.000	Al
Al1	1.000	0.875	0.775	0.350	Biso	1.000	Al
Al1	1.000	0.825	0.725	0.400	Biso	1.000	Al
Al1	1.000	0.825	0.775	0.425	Biso	1.000	Al
Al1	1.000	0.875	0.725	0.425	Biso	1.000	Al
Al1	1.000	0.875	0.775	0.400	Biso	1.000	Al
Al1	1.000	0.825	0.725	0.450	Biso	1.000	Al
Al1	1.000	0.825	0.775	0.475	Biso	1.000	Al
Al1	1.000	0.875	0.725	0.475	Biso	1.000	Al
Al1	1.000	0.875	0.775	0.450	Biso	1.000	Al
Al1	1.000	0.825	0.725	0.500	Biso	1.000	Al
Al1	1.000	0.825	0.775	0.525	Biso	1.000	Al
Al1	1.000	0.875	0.725	0.525	Biso	1.000	Al
Al1	1.000	0.875	0.775	0.500	Biso	1.000	Al
Al1	1.000	0.825	0.725	0.550	Biso	1.000	Al
Al1	1.000	0.825	0.775	0.575	Biso	1.000	Al
Al1	1.000	0.875	0.725	0.575	Biso	1.000	Al
Al1	1.000	0.875	0.775	0.550	Biso	1.000	Al
Al1	1.000	0.825	0.725	0.600	Biso	1.000	Al
Al1	1.000	0.825	0.775	0.625	Biso	1.000	Al
Al1	1.000	0.875	0.725	0.625	Biso	1.000	Al
Al1	1.000	0.875	0.775	0.600	Biso	1.000	Al
Al1	1.000	0.825	0.725	0.650	Biso	1.000	Al
Al1	1.000	0.825	0.775	0.675	Biso	1.000	Al
Al1	1.000	0.875	0.725	0.675	Biso	1.000	Al
Al1	1.000	0.875	0.775	0.650	Biso	1.000	Al
Al1	1.000	0.825	0.725	0.700	Biso	1.000	Al
Al1	1.000	0.825	0.775	0.725	Biso	1.000	Al
Al1	1.000	0.875	0.725	0.725	Biso	1.000	Al
Al1	1.000	0.875	0.775	0.700	Biso	1.000	Al
Al1	1.000	0.825	0.725	0.750	Biso	1.000	Al
Al1	1.000	0.825	0.775	0.775	Biso	1.000	Al
Al1	1.000	0.875	0.725	0.775	Biso	1.000	Al
Al1	1.000	0.875	0.775	0.750	Biso	1.000	Al
Al1	1.000	0.825	0.725	0.800	Biso	1.000	Al
Al1	1.000	0.825	0.775	0.825	Biso	1.000	Al
Al1	1.000	0.875	0.725	0.825	Biso	1.000	Al
Al1	1.000	0.875	0.775	0.800	Biso	1.000	Al
Al1	1.000	0.825	0.725	0.850	Biso	1.000	Al
Al1	1.000	0.825	0.775	0.875	Biso	1.000	Al
Al1	1.000	0.875	0.725	0.875	Biso	1.000	Al
Al1	1.000	0.875	0.775	0.850	Biso	1.000	Al
Al1	1.000	0.825	0.725	0.900	Biso	1.000	Al
Al1	1.000	0.825	0.775	0.925	Biso	1.000	Al
Al1	1.000	0.875	0.725	0.925	Biso	1.000	Al
Al1	1.000	0.875	0.775	0.900	Biso	1.000	Al
Al1	1.000	0.825	0.725	0.950	Biso	1.000	Al
Al1	1.000	0.825	0.775	0.975	Biso	1.000	Al
Al1	1.000	0.875	0.725	0.975	Biso	1.000	Al
Al1	1.000	0.875	0.775	0.950	Biso	1.000	Al
Al1	1.000	0.825	0.825	0.000	Biso	1.000	Al
Al1	1.000	0.825	0.875	0.025	Biso	1.000	Al
Al1	1.000	0.875	0.825	0.025	Biso	1.000	Al
Al1	1.000	0.875	0.875	0.000	Biso	1.000	Al
Al1	1.000	0.825	0.825	0.050	Biso	1.000	Al
Al1	1.000	0.825	0.875	0.075	Biso	1.000	Al
Al1	1.000	0.875	0.825	0.075	Biso	1.000	Al
Al1	1.000	0.875	0.875	0.050	Biso	1.000	Al
Al1	1.000	0.825	0.825	0.100	Biso	1.000	Al
Al1	1.000	0.825	0.875	0.125	Biso	1.000	Al
Al1	1.000	0.875	0.825	0.125	Biso	1.000	Al
Al1	1.000	0.875	0.875	0.100	Biso	1.000	Al
Al1	1.000	0.825	0.825	0.150	Biso	1.000	Al
Al1	1.000	0.825	0.875	0.175	Biso	1.000	Al
Al1	1.000	0.875	0.825	0.175	Biso	1.000	Al
Al1	1.000	0.875	0.875	0.150	Biso	1.000	Al
Al1	1.000	0.825	0.825	0.200	Biso	1.000	Al
Al1	1.000	0.825	0.875	0.225	Biso	1.000	Al
Al1	1.000	0.875	0.825	0.225	Biso	1.000	Al
Al1	1.000	0.875	0.875	0.200	Biso	1.000	Al
Al1	1.000	0.825	0.825	0.250	Biso	1.000	Al
Al1	1.000	0.825	0.875	0.275	Biso	1.000	Al
Al1	1.000	0.875	0.825	0.275	Biso	1.000	Al
Al1	1.000	0.875	0.875	0.250	Biso	1.000	Al
Al1	1.000	0.825	0.825	0.300	Biso	1.000	Al
Al1	1.000	0.825	0.875	0.325	Biso	1.000	Al
Al1	1.000	0.875	0.825	0.325	Biso	1.000	Al
Al1	1.000	0.875	0.875	0.300	Biso	1.000	Al
Al1	1.000	0.825	0.825	0.350	Biso	1.000	Al
Al1	1.000	0.825	0.875	0.375	Biso	1.000	Al
Al1	1.000	0.875	0.825	0.375	Biso	1.000	Al
Al1	1.000	0.875	0.875	0.350	Biso	1.000	Al
Al1	1.000	0.825	0.825	0.400	Biso	1.000	Al
Al1	1.000	0.825	0.875	0.425	Biso	1.000	Al
Al1	1.000	0.875	0.825	0.425	Biso	1.000	Al
Al1	1.000	0.875	0.875	0.400	Biso	1.000	Al
Al1	1.000	0.825	0.825	0.450	Biso	1.000	Al
Al1	1.000	0.825	0.875	0.475	Biso	1.000	Al
Al1	1.000	0.875	0.825	0.475	Biso	1.000	Al
Al1	1.000	0.875	0.875	0.450	Biso	1.000	Al
Al1	1.000	0.825	0.825	0.500	Biso	1.000	Al
Al1	1.000	0.825	0.875	0.525	Biso	1.000	Al
Al1	1.000	0.875	0.825	0.525	Biso	1.000	Al
Al1	1.000	0.875	0.875	0.500	Biso	1.000	Al
Al1	1.000	0.825	0.825	0.550	Biso	1.000	Al
Al1	1.000	0.825	0.875	0.575	Biso	1.000	Al
Al1	1.000	0.875	0.825	0.575	Biso	1.000	Al
Al1	1.000	0.875	0.875	0.550	Biso	1.000	Al
Al1	1.000	0.825	0.825	0.600	Biso	1.000	Al
Al1	1.000	0.825	0.875	0.625	Biso	1.000	Al
Al1	1.000	0.875	0.825	0.625	Biso	1.000	Al
Al1	1.000	0.875	0.875	0.600	Biso	1.000	Al
Al1	1.000	0.825	0.825	0.650	Biso	1.000	Al
Al1	1.000	0.825	0.875	0.675	Biso	1.000	Al
Al1	1.000	0.875	0.825	0.675	Biso	1.000	Al
Al1	1.000	0.875	0.875	0.650	Biso	1.000	Al
Al1	1.000	0.825	0.825	0.700	Biso	1.000	Al
Al1	1.000	0.825	0.875	0.725	Biso	1.000	Al
Al1	1.000	0.875	0.825	0.725	Biso	1.000	Al
Al1	1.000	0.875	0.875	0.700	Biso	1.000	Al
Al1	1.000	0.825	0.825	0.750	Biso	1.000	Al
Al1	1.000	0.825	0.875	0.775	Biso	1.000	Al
Al1	1.000	0.875	0.825	0.775	Biso	1.000	Al
Al1	1.000	0.875	0.875	0.750	Biso	1.000	Al
Al1	1.000	0.825	0.825	0.800	Biso	1.000	Al
Al1	1.000	0.825	0.875	0.825	Biso	1.000	Al
Al1	1.000	0.875	0.825	0.825	Biso	1.000	Al
Al1	1.000	0.875	0.875	0.800	Biso	1.000	Al
Al1	1.000	0.825	0.825	0.850	Biso	1.000	Al
Al1	1.000	0.825	0.875	0.875	Biso	1.000	Al
Al1	1.000	0.875	0.825	0.875	Biso	1.000	Al
Al1	1.000	0.875	0.875	0.850	Biso	1.000	Al
Al1	1.000	0.825	0.825	0.900	Biso	1.000	Al
Al1	1.000	0.825	0.875	0.925	Biso	1.000	Al
Al1	1.000	0.875	0.825	0.925	Biso	1.000	Al
Al1	1.000	0.875	0.875	0.900	Biso	1.000	Al
Al1	1.000	0.825	0.825	0.950	Biso	1.000	Al
Al1	1.000	0.825	0.875	0.975	Biso	1.000	Al
Al1	1.000	0.875	0.825	0.975	Biso	1.000	Al
Al1	1.000	0.875	0.875	0.950	Biso	1.000	Al
Al1	1.000	0.825	0.925	0.000	Biso	1.000	Al
Al1	1.000	0.825	0.975	0.025	Biso	1.000	Al
Al1	1.000	0.875	0.925	0.025	Biso	1.000	Al
Al1	1.000	0.875	0.975	0.000	Biso	1.000	Al
Al1	1.000	0.825	0.925	0.050	Biso	1.000	Al
Al1	1.000	0.825	0.975	0.075	Biso	1.000	Al
Al1	1.000	0.875	0.925	0.075	Biso	1.000	Al
Al1	1.000	0.875	0.975	0.050	Biso	1.000	Al
Al1	1.000	0.825	0.925	0.100	Biso	1.000	Al
Al1	1.000	0.825	0.975	0.125	Biso	1.000	Al
Al1	1.000	0.875	0.925	0.125	Biso	1.000	Al
Al1	1.000	0.875	0.975	0.100	Biso	1.000	Al
Al1	1.000	0.825	0.925	0.150	Biso	1.000	Al
Al1	1.000	0.825	0.975	0.175	Biso	1.000	Al
Al1	1.000	0.875	0.925	0.175	Biso	1.000	Al
Al1	1.000	0.875	0.975	0.150	Biso	1.000	Al
Al1	1.000	0.825	0.925	0.200	Biso	1.000	Al
Al1	1.000	0.825	0.975	0.225	Biso	1.000	Al
Al1	1.000	0.875	0.925	0.225	Biso	1.000	Al
Al1	1.000	0.875	0.975	0.200	Biso	1.000	Al
Al1	1.000	0.825	0.925	0.250	Biso	1.000	Al
Al1	1.000	0.825	0.975	0.275	Biso	1.000	Al
Al1	1.000	0.875	0.925	0.275	Biso	1.000	Al
Al1	1.000	0.875	0.975	0.250	Biso	1.000	Al
Al1	1.000	0.825	0.925	0.300	Biso	1.000	Al
Al1	1.000	0.825	0.975	0.325	Biso	1.000	Al
Al1	1.000	0.875	0.925	0.325	Biso	1.000	Al
Al1	1.000	0.875	0.975	0.300	Biso	1.000	Al
Al1	1.000	0.825	0.925	0.350	Biso	1.000	Al
Al1	1.000	0.825	0.975	0.375	Biso	1.000	Al
Al1	1.000	0.875	0.925	0.375	Biso	1.000	Al
Al1	1.000	0.875	0.975	0.350	Biso	1.000	Al
Al1	1.000	0.825	0.925	0.400	Biso	1.000	Al
Al1	1.000	0.825	0.975	0.425	Biso	1.000	Al
Al1	1.000	0.875	0.925	0.425	Biso	1.000	Al
Al1	1.000	0.875	0.975	0.400	Biso	1.000	Al
Al1	1.000	0.825	0.925	0.450	Biso	1.000	Al
Al1	1.000	0.825	0.975	0.475	Biso	1.000	Al
Al1	1.000	0.875	0.925	0.475	Biso	1.000	Al
Al1	1.000	0.875	0.975	0.450	Biso	1.000	Al
Al1	1.000	0.825	0.925	0.500	Biso	1.000	Al
Al1	1.000	0.825	0.975	0.525	Biso	1.000	Al
Al1	1.000	0.875	0.925	0.525	Biso	1.000	Al
Al1	1.000	0.875	0.975	0.500	Biso	1.000	Al
Al1	1.000	0.825	0.925	0.550	Biso	1.000	Al
Al1	1.000	0.825	0.975	0.575	Biso	1.000	Al
Al1	1.000	0.875	0.925	0.575	Biso	1.000	Al
Al1	1.000	0.875	0.975	0.550	Biso	1.000	Al
Al1	1.000	0.825	0.925	0.600	Biso	1.000	Al
Al1	1.000	0.825	0.975	0.625	Biso	1.000	Al
Al1	1.000	0.875	0.925	0.625	Biso	1.000	Al
Al1	1.000	0.875	0.975	0.600	Biso	1.000	Al
Al1	1.000	0.825	0.925	0.650	Biso	1.000	Al
Al1	1.000	0.825	0.975	0.675	Biso	1.000	Al
Al1	1.000	0.875	0.925	0.675	Biso	1.000	Al
Al1	1.000	0.875	0.975	0.650	Biso	1.000	Al
Al1	1.000	0.825	0.925	0.700	Biso	1.000	Al
Al1	1.000	0.825	0.975	0.725	Biso	1.000	Al
Al1	1.000	0.875	0.925	0.725	Biso	1.000	Al
Al1	1.000	0.875	0.975	0.700	Biso	1.000	Al
Al1	1.000	0.825	0.925	0.750	Biso	1.000	Al
Al1	1.000	0.825	0.975	0.775	Biso	1.000	Al
Al1	1.000	0.875	0.925	0.775	Biso	1.000	Al
Al1	1.000	0.875	0.975	0.750	Biso	1.000	Al
Al1	1.000	0.825	0.925	0.800	Biso	1.000	Al
Al1	1.000	0.825	0.975	0.825	Biso	1.000	Al
Al1	1.000	0.875	0.925	0.825	Biso	1.000	Al
Al1	1.000	0.875	0.975	0.800	Biso	1.000	Al
Al1	1.000	0.825	0.925	0.850	Biso	1.000	Al
Al1	1.000	0.825	0.975	0.875	Biso	1.000	Al
Al1	1.000	0.875	0.925	0.875	Biso	1.000	Al
Al1	1.000	0.875	0.975	0.850	Biso	1.000	Al
Al1	1.000	0.825	0.925	0.900	Biso	1.000	Al
Al1	1.000	0.825	0.975	0.925	Biso	1.000	Al
Al1	1.000	0.875	0.925	0.925	Biso	1.000	Al
Al1	1.000	0.875	0.975	0.900	Biso	1.000	Al
Al1	1.000	0.825	0.925	0.950	Biso	1.000	Al
Al1	1.000	0.825	0.975	0.975	Biso	1.000	Al
Al1	1.000	0.875	0.925	0.975	Biso	1.000	Al
Al1	1.000	0.875	0.975	0.950	Biso	1.000	Al
Al1	1.000	0.925	0.025	0.000	Biso	1.000	Al
Al1	1.000	0.925	0.075	0.025	Biso	1.000	Al
Al1	1.000	0.975	0.025	0.025	Biso	1.000	Al
Al1	1.000	0.975	0.075	0.000	Biso	1.000	Al
Al1	1.000	0.925	0.025	0.050	Biso	1.000	Al
Al1	1.000	0.925	0.075	0.075	Biso	1.000	Al
Al1	1.000	0.975	0.025	0.075	Biso	1.000	Al
Al1	1.000	0.975	0.075	0.050	Biso	1.000	Al
Al1	1.000	0.925	0.025	0.100	Biso	1.000	Al
Al1	1.000	0.925	0.075	0.125	Biso	1.000	Al
Al1	1.000	0.975	0.025	0.125	Biso	1.000	Al
Al1	1.000	0.975	0.075	0.100	Biso	1.000	Al
Al1	1.000	0.925	0.025	0.150	Biso	1.000	Al
Al1	1.000	0.925	0.075	0.175	Biso	1.000	Al
Al1	1.000	0.975	0.025	0.175	Biso	1.000	Al
Al1	1.000	0.975	0.075	0.150	Biso	1.000	Al
Al1	1.000	0.925	0.025	0.200	Biso	1.000	Al
Al1	1.000	0.925	0.075	0.225	Biso	1.000	Al
Al1	1.000	0.975	0.025	0.225	Biso	1.000	Al
Al1	1.000	0.975	0.075	0.200	Biso	1.000	Al
Al1	1.000	0.925	0.025	0.250	Biso	1.000	Al
Al1	1.000	0.925	0.075	0.275	Biso	1.000	Al
Al1	1.000	0.975	0.025	0.275	Biso	1.000	Al
Al1	1.000	0.975	0.075	0.250	Biso	1.000	Al
Al1	1.000	0.925	0.025	0.300	Biso	1.000	Al
Al1	1.000	0.925	0.075	0.325	Biso	1.000	Al
Al1	1.000	0.975	0.025	0.325	Biso	1.000	Al
Al1	1.000	0.975	0.075	0.300	Biso	1.000	Al
Al1	1.000	0.925	0.025	0.350	Biso	1.000	Al
Al1	1.000	0.925	0.075	0.375	Biso	1.000	Al
Al1	1.000	0.975	0.025	0.375	Biso	1.000	Al
Al1	1.000	0.975	0.075	0.350	Biso	1.000	Al
Al1	1.000	0.925	0.025	0.400	Biso	1.000	Al
Al1	1.000	0.925	0.075	0.425	Biso	1.000	Al
Al1	1.000	0.975	0.025	0.425	Biso	1.000	Al
Al1	1.000	0.975	0.075	0.400	Biso	1.000	Al
Al1	1.000	0.925	0.025	0.450	Biso	1.000	Al
Al1	1.000	0.925	0.075	0.475	Biso	1.000	Al
Al1	1.000	0.975	0.025	0.475	Biso	1.000	Al
Al1	1.000	0.975	0.075	0.450	Biso	1.000	Al
Al1	1.000	0.925	0.025	0.500	Biso	1.000	Al
Al1	1.000	0.925	0.075	0.525	Biso	1.000	Al
Al1	1.000	0.975	0.025	0.525	Biso	1.000	Al
Al1	1.000	0.975	0.075	0.500	Biso	1.000	Al
Al1	1.000	0.925	0.025	0.550	Biso	1.000	Al
Al1	1.000	0.925	0.075	0.575	Biso	1.000	Al
Al1	1.000	0.975	0.025	0.575	Biso	1.000	Al
Al1	1.000	0.975	0.075	0.550	Biso	1.000	Al
Al1	1.000	0.925	0.025	0.600	Biso	1.000	Al
Al1	1.000	0.925	0.075	0.625	Biso	1.000	Al
Al1	1.000	0.975	0.025	0.625	Biso	1.000	Al
Al1	1.000	0.975	0.075	0.600	Biso	1.000	Al
Al1	1.000	0.925	0.025	0.650	Biso	1.000	Al
Al1	1.000	0.925	0.075	0.675	Biso	1.000	Al
Al1	1.000	0.975	0.025	0.675	Biso	1.000	Al
Al1	1.000	0.975	0.075	0.650	Biso	1.000	Al
Al1	1.000	0.925	0.025	0.700	Biso	1.000	Al
Al1	1.000	0.925	0.075	0.725	Biso	1.000	Al
Al1	1.000	0.975	0.025	0.725	Biso	1.000	Al
Al1	1.000	0.975	0.075	0.700	Biso	1.000	Al
Al1	1.000	0.925	0.025	0.750	Biso	1.000	Al
Al1	1.000	0.925	0.075	0.775	Biso	1.000	Al
Al1	1.000	0.975	0.025	0.775	Biso	1.000	Al
Al1	1.000	0.975	0.075	0.750	Biso	1.000	Al
Al1	1.000	0.925	0.025	0.800	Biso	1.000	Al
Al1	1.000	0.925	0.075	0.825	Biso	1.000	Al
Al1	1.000	0.975	0.025	0.825	Biso	1.000	Al
Al1	1.000	0.975	0.075	0.800	Biso	1.000	Al
Al1	1.000	0.925	0.025	0.850	Biso	1.000	Al
Al1	1.000	0.925	0.075	0.875	Biso	1.000	Al
Al1	1.000	0.975	0.025	0.875	Biso	1.000	Al
Al1	1.000	0.975	0.075	0.850	Biso	1.000	Al
Al1	1.000	0.925	0.025	0.900	Biso	1.000	Al
Al1	1.000	0.925	0.075	0.925	Biso	1.000	Al
Al1	1.000	0.975	0.025	0.925	Biso	1.000	Al
Al1	1.000	0.975	0.075	0.900	Biso	1.000	Al
Al1	1.000	0.925	0.025	0.950	Biso	1.000	Al
Al1	1.000	0.925	0.075	0.975	Biso	1.000	Al
Al1	1.000	0.975	0.025	0.975	Biso	1.000	Al
Al1	1.000	0.975	0.075	0.950	Biso	1.000	Al
Al1	1.000	0.925	0.125	0.000	Biso	1.000	Al
Al1	1.000	0.925	0.175	0.025	Biso	1.000	Al
Al1	1.000	0.975	0.125	0.025	Biso	1.000	Al
Al1	1.000	0.975	0.175	0.000	Biso	1.000	Al
Al1	1.000	0.925	0.125	0.050	Biso	1.000	Al
Al1	1.000	0.925	0.175	0.075	Biso	1.000	Al
Al1	1.000	0.975	0.125	0.075	Biso	1.000	Al
Al1	1.000	0.975	0.175	0.050	Biso	1.000	Al
Al1	1.000	0.925	0.125	0.100	Biso	1.000	Al
Al1	1.000	0.925	0.175	0.125	Biso	1.000	Al
Al1	1.000	0.975	0.125	0.125	Biso	1.000	Al
Al1	1.000	0.975	0.175	0.100	Biso	1.000	Al
Al1	1.000	0.925	0.125	0.150	Biso	1.000	Al
Al1	1.000	0.925	0.175	0.175	Biso	1.000	Al
Al1	1.000	0.975	0.125	0.175	Biso	1.000	Al
Al1	1.000	0.975	0.175	0.150	Biso	1.000	Al
Al1	1.000	0.925	0.125	0.200	Biso	1.000	Al
Al1	1.000	0.925	0.175	0.225	Biso	1.000	Al
Al1	1.000	0.975	0.125	0.225	Biso	1.000	Al
Al1	1.000	0.975	0.175	0.200	Biso	1.000	Al
Al1	1.000	0.925	0.125	0.250	Biso	1.000	Al
Al1	1.000	0.925	0.175	0.275	Biso	1.000	Al
Al1	1.000	0.975	0.125	0.275	Biso	1.000	Al
Al1	1.000	0.975	0.175	0.250	Biso	1.000	Al
Al1	1.000	0.925	0.125	0.300	Biso	1.000	Al
Al1	1.000	0.925	0.175	0.325	Biso	1.000	Al
Al1	1.000	0.975	0.125	0.325	Biso	1.000	Al
Al1	1.000	0.975	0.175	0.300	Biso	1.000	Al
Al1	1.000	0.925	0.125	0.350	Biso	1.000	Al
Al1	1.000	0.925	0.175	0.375	Biso	1.000	Al
Al1	1.000	0.975	0.125	0.375	Biso	1.000	Al
Al1	1.000	0.975	0.175	0.350	Biso	1.000	Al
Al1	1.000	0.925	0.125	0.400	Biso	1.000	Al
Al1	1.000	0.925	0.175	0.425	Biso	1.000	Al
Al1	1.000	0.975	0.125	0.425	Biso	1.000	Al
Al1	1.000	0.975	0.175	0.400	Biso	1.000	Al
Al1	1.000	0.925	0.125	0.450	Biso	1.000	Al
Al1	1.000	0.925	0.175	0.475	Biso	1.000	Al
Al1	1.000	0.975	0.125	0.475	Biso	1.000	Al
Al1	1.000	0.975	0.175	0.450	Biso	1.000	Al
Al1	1.000	0.925	0.125	0.500	Biso	1.000	Al
Al1	1.000	0.925	0.175	0.525	Biso	1.000	Al
Al1	1.000	0.975	0.125	0.525	Biso	1.000	Al
Al1	1.000	0.975	0.175	0.500	Biso	1.000	Al
Al1	1.000	0.925	0.125	0.550	Biso	1.000	Al
Al1	1.000	0.925	0.175	0.575	Biso	1.000	Al
Al1	1.000	0.975	0.125	0.575	Biso	1.000	Al
Al1	1.000	0.975	0.175	0.550	Biso	1.000	Al
Al1	1.000	0.925	0.125	0.600	Biso	1.000	Al
Al1	1.000	0.925	0.175	0.625	Biso	1.000	Al
Al1	1.000	0.975	0.125	0.625	Biso	1.000	Al
Al1	1.000	0.975	0.175	0.600	Biso	1.000	Al
Al1	1.000	0.925	0.125	0.650	Biso	1.000	Al
Al1	1.000	0.925	0.175	0.675	Biso	1.000	Al
Al1	1.000	0.975	0.125	0.675	Biso	1.000	Al
Al1	1.000	0.975	0.175	0.650	Biso	1.000	Al
Al1	1.000	0.925	0.125	0.700	Biso	1.000	Al
Al1	1.000	0.925	0.175	0.725	Biso	1.000	Al
Al1	1.000	0.975	0.125	0.725	Biso	1.000	Al
Al1	1.000	0.975	0.175	0.700	Biso	1.000	Al
Al1	1.000	0.925	0.125	0.750	Biso	1.000	Al
Al1	1.000	0.925	0.175	0.775	Biso	1.000	Al
Al1	1.000	0.975	0.125	0.775	Biso	1.000	Al
Al1	1.000	0.975	0.175	0.750	Biso	1.000	Al
Al1	1.000	0.925	0.125	0.800	Biso	1.000	Al
Al1	1.000	0.925	0.175	0.825	Biso	1.000	Al
Al1	1.000	0.975	0.125	0.825	Biso	1.000	Al
Al1	1.000	0.975	0.175	0.800	Biso	1.000	Al
Al1	1.000	0.925	0.125	0.850	Biso	1.000	Al
Al1	1.000	0.925	0.175	0.875	Biso	1.000	Al
Al1	1.000	0.975	0.125	0.875	Biso	1.000	Al
Al1	1.000	0.975	0.175	0.850	Biso	1.000	Al
Al1	1.000	0.925	0.125	0.900	Biso	1.000	Al
Al1	1.000	0.925	0.175	0.925	Biso	1.000	Al
Al1	1.000	0.975	0.125	0.925	Biso	1.000	Al
Al1	1.000	0.975	0.175	0.900	Biso	1.000	Al
Al1	1.000	0.925	0.125	0.950	Biso	1.000	Al
Al1	1.000	0.925	0.175	0.975	Biso	1.000	Al
Al1	1.000	0.975	0.125	0.975	Biso	1.000	Al
Al1	1.000	0.975	0.175	0.950	Biso	1.000	Al
Al1	1.000	0.925	0.225	0.000	Biso	1.000	Al
Al1	1.000	0.925	0.275	0.025	Biso	1.000	Al
Al1	1.000	0.975	0.225	0.025	Biso	1.000	Al
Al1	1.000	0.975	0.275	0.000	Biso	1.000	Al
Al1	1.000	0.925	0.225	0.050	Biso	1.000	Al
Al1	1.000	0.925	0.275	0.075	Biso	1.000	Al
Al1	1.000	0.975	0.225	0.075	Biso	1.000	Al
Al1	1.000	0.975	0.275	0.050	Biso	1.000	Al
Al1	1.000	0.925	0.225	0.100	Biso	1.000	Al
Al1	1.000	0.925	0.275	0.125	Biso	1.000	Al
Al1	1.000	0.975	0.225	0.125	Biso	1.000	Al
Al1	1.000	0.975	0.275	0.100	Biso	1.000	Al
Al1	1.000	0.925	0.225	0.150	Biso	1.000	Al
Al1	1.000	0.925	0.275	0.175	Biso	1.000	Al
Al1	1.000	0.975	0.225	0.175	Biso	1.000	Al
Al1	1.000	0.975	0.275	0.150	Biso	1.000	Al
Al1	1.000	0.925	0.225	0.200	Biso	1.000	Al
Al1	1.000	0.925	0.275	0.225	Biso	1.000	Al
Al1	1.000	0.975	0.225	0.225	Biso	1.000	Al
Al1	1.000	0.975	0.275	0.200	Biso	1.000	Al
Al1	1.000	0.925	0.225	0.250	Biso	1.000	Al
Al1	1.000	0.925	0.275	0.275	Biso	1.000	Al
Al1	1.000	0.975	0.225	0.275	Biso	1.000	Al
Al1	1.000	0.975	0.275	0.250	Biso	1.000	Al
Al1	1.000	0.925	0.225	0.300	Biso	1.000	Al
Al1	1.000	0.925	0.275	0.325	Biso	1.000	Al
Al1	1.000	0.975	0.225	0.325	Biso	1.000	Al
Al1	1.000	0.975	0.275	0.300	Biso	1.000	Al
Al1	1.000	0.925	0.225	0.350	Biso	1.000	Al
Al1	1.000	0.925	0.275	0.375	Biso	1.000	Al
Al1	1.000	0.975	0.225	0.375	Biso	1.000	Al
Al1	1.000	0.975	0.275	0.350	Biso	1.000	Al
Al1	1.000	0.925	0.225	0.400	Biso	1.000	Al
Al1	1.000	0.925	0.275	0.425	Biso	1.000	Al
Al1	1.000	0.975	0.225	0.425	Biso	1.000	Al
Al1	1.000	0.975	0.275	0.400	Biso	1.000	Al
Al1	1.000	0.925	0.225	0.450	Biso	1.000	Al
Al1	1.000	0.925	0.275	0.475	Biso	1.000	Al
Al1	1.000	0.975	0.225	0.475	Biso	1.000	Al
Al1	1.000	0.975	0.275	0.450	Biso	1.000	Al
Al1	1.000	0.925	0.225	0.500	Biso	1.000	Al
Al1	1.000	0.925	0.275	0.525	Biso	1.000	Al
Al1	1.000	0.975	0.225	0.525	Biso	1.000	Al
Al1	1.000	0.975	0.275	0.500	Biso	1.000	Al
Al1	1.000	0.925	0.225	0.550	Biso	1.000	Al
Al1	1.000	0.925	0.275	0.575	Biso	1.000	Al
Al1	1.000	0.975	0.225	0.575	Biso	1.000	Al
Al1	1.000	0.975	0.275	0.550	Biso	1.000	Al
Al1	1.000	0.925	0.225	0.600	Biso	1.000	Al
Al1	1.000	0.925	0.275	0.625	Biso	1.000	Al
Al1	1.000	0.975	0.225	0.625	Biso	1.000	Al
Al1	1.000	0.975	0.275	0.600	Biso	1.000	Al
Al1	1.000	0.925	0.225	0.650	Biso	1.000	Al
Al1	1.000	0.925	0.275	0.675	Biso	1.000	Al
Al1	1.000	0.975	0.225	0.675	Biso	1.000	Al
Al1	1.000	0.975	0.275	0.650	Biso	1.000	Al
Al1	1.000	0.925	0.225	0.700	Biso	1.000	Al
Al1	1.000	0.925	0.275	0.725	Biso	1.000	Al
Al1	1.000	0.975	0.225	0.725	Biso	1.000	Al
Al1	1.000	0.975	0.275	0.700	Biso	1.000	Al
Al1	1.000	0.925	0.225	0.750	Biso	1.000	Al
Al1	1.000	0.925	0.275	0.775	Biso	1.000	Al
Al1	1.000	0.975	0.225	0.775	Biso	1.000	Al
Al1	1.000	0.975	0.275	0.750	Biso	1.000	Al
Al1	1.000	0.925	0.225	0.800	Biso	1.000	Al
Al1	1.000	0.925	0.275	0.825	Biso	1.000	Al
Al1	1.000	0.975	0.225	0.825	Biso	1.000	Al
Al1	1.000	0.975	0.275	0.800	Biso	1.000	Al
Al1	1.000	0.925	0.225	0.850	Biso	1.000	Al
Al1	1.000	0.925	0.275	0.875	Biso	1.000	Al
Al1	1.000	0.975	0.225	0.875	Biso	1.000	Al
Al1	1.000	0.975	0.275	0.850	Biso	1.000	Al
Al1	1.000	0.925	0.225	0.900	Biso	1.000	Al
Al1	1.000	0.925	0.275	0.925	Biso	1.000	Al
Al1	1.000	0.975	0.225	0.925	Biso	1.000	Al
Al1	1.000	0.975	0.275	0.900	Biso	1.000	Al
Al1	1.000	0.925	0.225	0.950	Biso	1.000	Al
Al1	1.000	0.925	0.275	0.975	Biso	1.000	Al
Al1	1.000	0.975	0.225	0.975	Biso	1.000	Al
Al1	1.000	0.975	0.275	0.950	Biso	1.000	Al
Al1	1.000	0.925	0.325	0.000	Biso	1.000	Al
Al1	1.000	0.925	0.375	0.025	Biso	1.000	Al
Al1	1.000	0.975	0.325	0.025	Biso	1.000	Al
Al1	1.000	0.975	0.375	0.000	Biso	1.000	Al
Al1	1.000	0.925	0.325	0.050	Biso	1.000	Al
Al1	1.000	0.925	0.375	0.075	Biso	1.000	Al
Al1	1.000	0.975	0.325	0.075	Biso	1.000	Al
Al1	1.000	0.975	0.375	0.050	Biso	1.000	Al
Al1	1.000	0.925	0.325	0.100	Biso	1.000	Al
Al1	1.000	0.925	0.375	0.125	Biso	1.000	Al
Al1	1.000	0.975	0.325	0.125	Biso	1.000	Al
Al1	1.000	0.975	0.375	0.100	Biso	1.000	Al
Al1	1.000	0.925	0.325	0.150	Biso	1.000	Al
Al1	1.000	0.925	0.375	0.175	Biso	1.000	Al
Al1	1.000	0.975	0.325	0.175	Biso	1.000	Al
Al1	1.000	0.975	0.375	0.150	Biso	1.000	Al
Al1	1.000	0.925	0.325	0.200	Biso	1.000	Al
Al1	1.000	0.925	0.375	0.225	Biso	1.000	Al
Al1	1.000	0.975	0.325	0.225	Biso	1.000	Al
Al1	1.000	0.975	0.375	0.200	Biso	1.000	Al
Al1	1.000	0.925	0.325	0.250	Biso	1.000	Al
Al1	1.000	0.925	0.375	0.275	Biso	1.000	Al
Al1	1.000	0.975	0.325	0.275	Biso	1.000	Al
Al1	1.000	0.975	0.375	0.250	Biso	1.000	Al
Al1	1.000	0.925	0.325	0.300	Biso	1.000	Al
Al1	1.000	0.925	0.375	0.325	Biso	1.000	Al
Al1	1.000	0.975	0.325	0.325	Biso	1.000	Al
Al1	1.000	0.975	0.375	0.300	Biso	1.000	Al
Al1	1.000	0.925	0.325	0.350	Biso	1.000	Al
Al1	1.000	0.925	0.375	0.375	Biso	1.000	Al
Al1	1.000	0.975	0.325	0.375	Biso	1.000	Al
Al1	1.000	0.975	0.375	0.350	Biso	1.000	Al
Al1	1.000	0.925	0.325	0.400	Biso	1.000	Al
Al1	1.000	0.925	0.375	0.425	Biso	1.000	Al
Al1	1.000	0.975	0.325	0.425	Biso	1.000	Al
Al1	1.000	0.975	0.375	0.400	Biso	1.000	Al
Al1	1.000	0.925	0.325	0.450	Biso	1.000	Al
Al1	1.000	0.925	0.375	0.475	Biso	1.000	Al
Al1	1.000	0.975	0.325	0.475	Biso	1.000	Al
Al1	1.000	0.975	0.375	0.450	Biso	1.000	Al
Al1	1.000	0.925	0.325	0.500	Biso	1.000	Al
Al1	1.000	0.925	0.375	0.525	Biso	1.000	Al
Al1	1.000	0.975	0.325	0.525	Biso	1.000	Al
Al1	1.000	0.975	0.375	0.500	Biso	1.000	Al
Al1	1.000	0.925	0.325	0.550	Biso	1.000	Al
Al1	1.000	0.925	0.375	0.575	Biso	1.000	Al
Al1	1.000	0.975	0.325	0.575	Biso	1.000	Al
Al1	1.000	0.975	0.375	0.550	Biso	1.000	Al
Al1	1.000	0.925	0.325	0.600	Biso	1.000	Al
Al1	1.000	0.925	0.375	0.625	Biso	1.000	Al
Al1	1.000	0.975	0.325	0.625	Biso	1.000	Al
Al1	1.000	0.975	0.375	0.600	Biso	1.000	Al
Al1	1.000	0.925	0.325	0.650	Biso	1.000	Al
Al1	1.000	0.925	0.375	0.675	Biso	1.000	Al
Al1	1.000	0.975	0.325	0.675	Biso	1.000	Al
Al1	1.000	0.975	0.375	0.650	Biso	1.000	Al
Al1	1.000	0.925	0.325	0.700	Biso	1.000	Al
Al1	1.000	0.925	0.375	0.725	Biso	1.000	Al
Al1	1.000	0.975	0.325	0.725	Biso	1.000	Al
Al1	1.000	0.975	0.375	0.700	Biso	1.000	Al
Al1	1.000	0.925	0.325	0.750	Biso	1.000	Al
Al1	1.000	0.925	0.375	0.775	Biso	1.000	Al
Al1	1.000	0.975	0.325	0.775	Biso	1.000	Al
Al1	1.000	0.975	0.375	0.750	Biso	1.000	Al
Al1	1.000	0.925	0.325	0.800	Biso	1.000	Al
Al1	1.000	0.925	0.375	0.825	Biso	1.000	Al
Al1	1.000	0.975	0.325	0.825	Biso	1.000	Al
Al1	1.000	0.975	0.375	0.800	Biso	1.000	Al
Al1	1.000	0.925	0.325	0.850	Biso	1.000	Al
Al1	1.000	0.925	0.375	0.875	Biso	1.000	Al
Al1	1.000	0.975	0.325	0.875	Biso	1.000	Al
Al1	1.000	0.975	0.375	0.850	Biso	1.000	Al
Al1	1.000	0.925	0.325	0.900	Biso	1.000	Al
Al1	1.000	0.925	0.375	0.925	Biso	1.000	Al
Al1	1.000	0.975	0.325	0.925	Biso	1.000	Al
Al1	1.000	0.975	0.375	0.900	Biso	1.000	Al
Al1	1.000	0.925	0.325	0.950	Biso	1.000	Al
Al1	1.000	0.925	0.375	0.975	Biso	1.000	Al
Al1	1.000	0.975	0.325	0.975	Biso	1.000	Al
Al1	1.000	0.975	0.375	0.950	Biso	1.000	Al
Al1	1.000	0.925	0.425	0.000	Biso	1.000	Al
Al1	1.000	0.925	0.475	0.025	Biso	1.000	Al
Al1	1.000	0.975	0.425	0.025	Biso	1.000	Al
Al1	1.000	0.975	0.475	0.000	Biso	1.000	Al
Al1	1.000	0.925	0.425	0.050	Biso	1.000	Al
Al1	1.000	0.925	0.475	0.075	Biso	1.000	Al
Al1	1.000	0.975	0.425	0.075	Biso	1.000	Al
Al1	1.000	0.975	0.475	0.050	Biso	1.000	Al
Al1	1.000	0.925	0.425	0.100	Biso	1.000	Al
Al1	1.000	0.925	0.475	0.125	Biso	1.000	Al
Al1	1.000	0.975	0.425	0.125	Biso	1.000	Al
Al1	1.000	0.975	0.475	0.100	Biso	1.000	Al
Al1	1.000	0.925	0.425	0.150	Biso	1.000	Al
Al1	1.000	0.925	0.475	0.175	Biso	1.000	Al
Al1	1.000	0.975	0.425	0.175	Biso	1.000	Al
Al1	1.000	0.975	0.475	0.150	Biso	1.000	Al
Al1	1.000	0.925	0.425	0.200	Biso	1.000	Al
Al1	1.000	0.925	0.475	0.225	Biso	1.000	Al
Al1	1.000	0.975	0.425	0.225	Biso	1.000	Al
Al1	1.000	0.975	0.475	0.200	Biso	1.000	Al
Al1	1.000	0.925	0.425	0.250	Biso	1.000	Al
Al1	1.000	0.925	0.475	0.275	Biso	1.000	Al
Al1	1.000	0.975	0.425	0.275	Biso	1.000	Al
Al1	1.000	0.975	0.475	0.250	Biso	1.000	Al
Al1	1.000	0.925	0.425	0.300	Biso	1.000	Al
Al1	1.000	0.925	0.475	0.325	Biso	1.000	Al
Al1	1.000	0.975	0.425	0.325	Biso	1.000	Al
Al1	1.000	0.975	0.475	0.300	Biso	1.000	Al
Al1	1.000	0.925	0.425	0.350	Biso	1.000	Al
Al1	1.000	0.925	0.475	0.375	Biso	1.000	Al
Al1	1.000	0.975	0.425	0.375	Biso	1.000	Al
Al1	1.000	0.975	0.475	0.350	Biso	1.000	Al
Al1	1.000	0.925	0.425	0.400	Biso	1.000	Al
Al1	1.000	0.925	0.475	0.425	Biso	1.000	Al
Al1	1.000	0.975	0.425	0.425	Biso	1.000	Al
Al1	1.000	0.975	0.475	0.400	Biso	1.000	Al
Al1	1.000	0.925	0.425	0.450	Biso	1.000	Al
Al1	1.000	0.925	0.475	0.475	Biso	1.000	Al
Al1	1.000	0.975	0.425	0.475	Biso	1.000	Al
Al1	1.000	0.975	0.475	0.450	Biso	1.000	Al
Al1	1.000	0.925	0.425	0.500	Biso	1.000	Al
Al1	1.000	0.925	0.475	0.525	Biso	1.000	Al
Al1	1.000	0.975	0.425	0.525	Biso	1.000	Al
Al1	1.000	0.975	0.475	0.500	Biso	1.000	Al
Al1	1.000	0.925	0.425	0.550	Biso	1.000	Al
Al1	1.000	0.925	0.475	0.575	Biso	1.000	Al
Al1	1.000	0.975	0.425	0.575	Biso	1.000	Al
Al1	1.000	0.975	0.475	0.550	Biso	1.000	Al
Al1	1.000	0.925	0.425	0.600	Biso	1.000	Al
Al1	1.000	0.925	0.475	0.625	Biso	1.000	Al
Al1	1.000	0.975	0.425	0.625	Biso	1.000	Al
Al1	1.000	0.975	0.475	0.600	Biso	1.000	Al
Al1	1.000	0.925	0.425	0.650	Biso	1.000	Al
Al1	1.000	0.925	0.475	0.675	Biso	1.000	Al
Al1	1.000	0.975	0.425	0.675	Biso	1.000	Al
Al1	1.000	0.975	0.475	0.650	Biso	1.000	Al
Al1	1.000	0.925	0.425	0.700	Biso	1.000	Al
Al1	1.000	0.925	0.475	0.725	Biso	1.000	Al
Al1	1.000	0.975	0.425	0.725	Biso	1.000	Al
Al1	1.000	0.975	0.475	0.700	Biso	1.000	Al
Al1	1.000	0.925	0.425	0.750	Biso	1.000	Al
Al1	1.000	0.925	0.475	0.775	Biso	1.000	Al
Al1	1.000	0.975	0.425	0.775	Biso	1.000	Al
Al1	1.000	0.975	0.475	0.750	Biso	1.000	Al
Al1	1.000	0.925	0.425	0.800	Biso	1.000	Al
Al1	1.000	0.925	0.475	0.825	Biso	1.000	Al
Al1	1.000	0.975	0.425	0.825	Biso	1.000	Al
Al1	1.000	0.975	0.475	0.800	Biso	1.000	Al
Al1	1.000	0.925	0.425	0.850	Biso	1.000	Al
Al1	1.000	0.925	0.475	0.875	Biso	1.000	Al
Al1	1.000	0.975	0.425	0.875	Biso	1.000	Al
Al1	1.000	0.975	0.475	0.850	Biso	1.000	Al
Al1	1.000	0.925	0.425	0.900	Biso	1.000	Al
Al1	1.000	0.925	0.475	0.925	Biso	1.000	Al
Al1	1.000	0.975	0.425	0.925	Biso	1.000	Al
Al1	1.000	0.975	0.475	0.900	Biso	1.000	Al
Al1	1.000	0.925	0.425	0.950	Biso	1.000	Al
Al1	1.000	0.925	0.475	0.975	Biso	1.000	Al
Al1	1.000	0.975	0.425	0.975	Biso	1.000	Al
Al1	1.000	0.975	0.475	0.950	Biso	1.000	Al
Al1	1.000	0.925	0.525	0.000	Biso	1.000	Al
Al1	1.000	0.925	0.575	0.025	Biso	1.000	Al
Al1	1.000	0.975	0.525	0.025	Biso	1.000	Al
Al1	1.000	0.975	0.575	0.000	Biso	1.000	Al
Al1	1.000	0.925	0.525	0.050	Biso	1.000	Al
Al1	1.000	0.925	0.575	0.075	Biso	1.000	Al
Al1	1.000	0.975	0.525	0.075	Biso	1.000	Al
Al1	1.000	0.975	0.575	0.050	Biso	1.000	Al
Al1	1.000	0.925	0.525	0.100	Biso	1.000	Al
Al1	1.000	0.925	0.575	0.125	Biso	1.000	Al
Al1	1.000	0.975	0.525	0.125	Biso	1.000	Al
Al1	1.000	0.975	0.575	0.100	Biso	1.000	Al
Al1	1.000	0.925	0.525	0.150	Biso	1.000	Al
Al1	1.000	0.925	0.575	0.175	Biso	1.000	Al
Al1	1.000	0.975	0.525	0.175	Biso	1.000	Al
Al1	1.000	0.975	0.575	0.150	Biso	1.000	Al
Al1	1.000	0.925	0.525	0.200	Biso	1.000	Al
Al1	1.000	0.925	0.575	0.225	Biso	1.000	Al
Al1	1.000	0.975	0.525	0.225	Biso	1.000	Al
Al1	1.000	0.975	0.575	0.200	Biso	1.000	Al
Al1	1.000	0.925	0.525	0.250	Biso	1.000	Al
Al1	1.000	0.925	0.575	0.275	Biso	1.000	Al
Al1	1.000	0.975	0.525	0.275	Biso	1.000	Al
Al1	1.000	0.975	0.575	0.250	Biso	1.000	Al
Al1	1.000	0.925	0.525	0.300	Biso	1.000	Al
Al1	1.000	0.925	0.575	0.325	Biso	1.000	Al
Al1	1.000	0.975	0.525	0.325	Biso	1.000	Al
Al1	1.000	0.975	0.575	0.300	Biso	1.000	Al
Al1	1.000	0.925	0.525	0.350	Biso	1.000	Al
Al1	1.000	0.925	0.575	0.375	Biso	1.000	Al
Al1	1.000	0.975	0.525	0.375	Biso	1.000	Al
Al1	1.000	0.975	0.575	0.350	Biso	1.000	Al
Al1	1.000	0.925	0.525	0.400	Biso	1.000	Al
Al1	1.000	0.925	0.575	0.425	Biso	1.000	Al
Al1	1.000	0.975	0.525	0.425	Biso	1.000	Al
Al1	1.000	0.975	0.575	0.400	Biso	1.000	Al
Al1	1.000	0.925	0.525	0.450	Biso	1.000	Al
Al1	1.000	0.925	0.575	0.475	Biso	1.000	Al
Al1	1.000	0.975	0.525	0.475	Biso	1.000	Al
Al1	1.000	0.975	0.575	0.450	Biso	1.000	Al
Al1	1.000	0.925	0.525	0.500	Biso	1.000	Al
Al1	1.000	0.925	0.575	0.525	Biso	1.000	Al
Al1	1.000	0.975	0.525	0.525	Biso	1.000	Al
Al1	1.000	0.975	0.575	0.500	Biso	1.000	Al
Al1	1.000	0.925	0.525	0.550	Biso	1.000	Al
Al1	1.000	0.925	0.575	0.575	Biso	1.000	Al
Al1	1.000	0.975	0.525	0.575	Biso	1.000	Al
Al1	1.000	0.975	0.575	0.550	Biso	1.000	Al
Al1	1.000	0.925	0.525	0.600	Biso	1.000	Al
Al1	1.000	0.925	0.575	0.625	Biso	1.000	Al
Al1	1.000	0.975	0.525	0.625	Biso	1.000	Al
Al1	1.000	0.975	0.575	0.600	Biso	1.000	Al
Al1	1.000	0.925	0.525	0.650	Biso	1.000	Al
Al1	1.000	0.925	0.575	0.675	Biso	1.000	Al
Al1	1.000	0.975	0.525	0.675	Biso	1.000	Al
Al1	1.000	0.975	0.575	0.650	Biso	1.000	Al
Al1	1.000	0.925	0.525	0.700	Biso	1.000	Al
Al1	1.000	0.925	0.575	0.725	Biso	1.000	Al
Al1	1.000	0.975	0.525	0.725	Biso	1.000	Al
Al1	1.000	0.975	0.575	0.700	Biso	1.000	Al
Al1	1.000	0.925	0.525	0.750	Biso	1.000	Al
Al1	1.000	0.925	0.575	0.775	Biso	1.000	Al
Al1	1.000	0.975	0.525	0.775	Biso	1.000	Al
Al1	1.000	0.975	0.575	0.750	Biso	1.000	Al
Al1	1.000	0.925	0.525	0.800	Biso	1.000	Al
Al1	1.000	0.925	0.575	0.825	Biso	1.000	Al
Al1	1.000	0.975	0.525	0.825	Biso	1.000	Al
Al1	1.000	0.975	0.575	0.800	Biso	1.000	Al
Al1	1.000	0.925	0.525	0.850	Biso	1.000	Al
Al1	1.000	0.925	0.575	0.875	Biso	1.000	Al
Al1	1.000	0.975	0.525	0.875	Biso	1.000	Al
Al1	1.000	0.975	0.575	0.850	Biso	1.000	Al
Al1	1.000	0.925	0.525	0.900	Biso	1.000	Al
Al1	1.000	0.925	0.575	0.925	Biso	1.000	Al
Al1	1.000	0.975	0.525	0.925	Biso	1.000	Al
Al1	1.000	0.975	0.575	0.900	Biso	1.000	Al
Al1	1.000	0.925	0.525	0.950	Biso	1.000	Al
Al1	1.000	0.925	0.575	0.975	Biso	1.000	Al
Al1	1.000	0.975	0.525	0.975	Biso	1.000	Al
Al1	1.000	0.975	0.575	0.950	Biso	1.000	Al
Al1	1.000	0.925	0.625	0.000	Biso	1.000	Al
Al1	1.000	0.925	0.675	0.025	Biso	1.000	Al
Al1	1.000	0.975	0.625	0.025	Biso	1.000	Al
Al1	1.000	0.975	0.675	0.000	Biso	1.000	Al
Al1	1.000	0.925	0.625	0.050	Biso	1.000	Al
Al1	1.000	0.925	0.675	0.075	Biso	1.000	Al
Al1	1.000	0.975	0.625	0.075	Biso	1.000	Al
Al1	1.000	0.975	0.675	0.050	Biso	1.000	Al
Al1	1.000	0.925	0.625	0.100	Biso	1.000	Al
Al1	1.000	0.925	0.675	0.125	Biso	1.000	Al
Al1	1.000	0.975	0.625	0.125	Biso	1.000	Al
Al1	1.000	0.975	0.675	0.100	Biso	1.000	Al
Al1	1.000	0.925	0.625	0.150	Biso	1.000	Al
Al1	1.000	0.925	0.675	0.175	Biso	1.000	Al
Al1	1.000	0.975	0.625	0.175	Biso	1.000	Al
Al1	1.000	0.975	0.675	0.150	Biso	1.000	Al
Al1	1.000	0.925	0.625	0.200	Biso	1.000	Al
Al1	1.000	0.925	0.675	0.225	Biso	1.000	Al
Al1	1.000	0.975	0.625	0.225	Biso	1.000	Al
Al1	1.000	0.975	0.675	0.200	Biso	1.000	Al
Al1	1.000	0.925	0.625	0.250	Biso	1.000	Al
Al1	1.000	0.925	0.675	0.275	Biso	1.000	Al
Al1	1.000	0.975	0.625	0.275	Biso	1.000	Al
Al1	1.000	0.975	0.675	0.250	Biso	1.000	Al
Al1	1.000	0.925	0.625	0.300	Biso	1.000	Al
Al1	1.000	0.925	0.675	0.325	Biso	1.000	Al
Al1	1.000	0.975	0.625	0.325	Biso	1.000	Al
Al1	1.000	0.975	0.675	0.300	Biso	1.000	Al
Al1	1.000	0.925	0.625	0.350	Biso	1.000	Al
Al1	1.000	0.925	0.675	0.375	Biso	1.000	Al
Al1	1.000	0.975	0.625	0.375	Biso	1.000	Al
Al1	1.000	0.975	0.675	0.350	Biso	1.000	Al
Al1	1.000	0.925	0.625	0.400	Biso	1.000	Al
Al1	1.000	0.925	0.675	0.425	Biso	1.000	Al
Al1	1.000	0.975	0.625	0.425	Biso	1.000	Al
Al1	1.000	0.975	0.675	0.400	Biso	1.000	Al
Al1	1.000	0.925	0.625	0.450	Biso	1.000	Al
Al1	1.000	0.925	0.675	0.475	Biso	1.000	Al
Al1	1.000	0.975	0.625	0.475	Biso	1.000	Al
Al1	1.000	0.975	0.675	0.450	Biso	1.000	Al
Al1	1.000	0.925	0.625	0.500	Biso	1.000	Al
Al1	1.000	0.925	0.675	0.525	Biso	1.000	Al
Al1	1.000	0.975	0.625	0.525	Biso	1.000	Al
Al1	1.000	0.975	0.675	0.500	Biso	1.000	Al
Al1	1.000	0.925	0.625	0.550	Biso	1.000	Al
Al1	1.000	0.925	0.675	0.575	Biso	1.000	Al
Al1	1.000	0.975	0.625	0.575	Biso	1.000	Al
Al1	1.000	0.975	0.675	0.550	Biso	1.000	Al
Al1	1.000	0.925	0.625	0.600	Biso	1.000	Al
Al1	1.000	0.925	0.675	0.625	Biso	1.000	Al
Al1	1.000	0.975	0.625	0.625	Biso	1.000	Al
Al1	1.000	0.975	0.675	0.600	Biso	1.000	Al
Al1	1.000	0.925	0.625	0.650	Biso	1.000	Al
Al1	1.000	0.925	0.675	0.675	Biso	1.000	Al
Al1	1.000	0.975	0.625	0.675	Biso	1.000	Al
Al1	1.000	0.975	0.675	0.650	Biso	1.000	Al
Al1	1.000	0.925	0.625	0.700	Biso	1.000	Al
Al1	1.000	0.925	0.675	0.725	Biso	1.000	Al
Al1	1.000	0.975	0.625	0.725	Biso	1.000	Al
Al1	1.000	0.975	0.675	0.700	Biso	1.000	Al
Al1	1.000	0.925	0.625	0.750	Biso	1.000	Al
Al1	1.000	0.925	0.675	0.775	Biso	1.000	Al
Al1	1.000	0.975	0.625	0.775	Biso	1.000	Al
Al1	1.000	0.975	0.675	0.750	Biso	1.000	Al
Al1	1.000	0.925	0.625	0.800	Biso	1.000	Al
Al1	1.000	0.925	0.675	0.825	Biso	1.000	Al
Al1	1.000	0.975	0.625	0.825	Biso	1.000	Al
Al1	1.000	0.975	0.675	0.800	Biso	1.000	Al
Al1	1.000	0.925	0.625	0.850	Biso	1.000	Al
Al1	1.000	0.925	0.675	0.875	Biso	1.000	Al
Al1	1.000	0.975	0.625	0.875	Biso	1.000	Al
Al1	1.000	0.975	0.675	0.850	Biso	1.000	Al
Al1	1.000	0.925	0.625	0.900	Biso	1.000	Al
Al1	1.000	0.925	0.675	0.925	Biso	1.000	Al
Al1	1.000	0.975	0.625	0.925	Biso	1.000	Al
Al1	1.000	0.975	0.675	0.900	Biso	1.000	Al
Al1	1.000	0.925	0.625	0.950	Biso	1.000	Al
Al1	1.000	0.925	0.675	0.975	Biso	1.000	Al
Al1	1.000	0.975	0.625	0.975	Biso	1.000	Al
Al1	1.000	0.975	0.675	0.950	Biso	1.000	Al
Al1	1.000	0.925	0.725	0.000	Biso	1.000	Al
Al1	1.000	0.925	0.775	0.025	Biso	1.000	Al
Al1	1.000	0.975	0.725	0.025	Biso	1.000	Al
Al1	1.000	0.975	0.775	0.000	Biso	1.000	Al
Al1	1.000	0.925	0.725	0.050	Biso	1.000	Al
Al1	1.000	0.925	0.775	0.075	Biso	1.000	Al
Al1	1.000	0.975	0.725	0.075	Biso	1.000	Al
Al1	1.000	0.975	0.775	0.050	Biso	1.000	Al
Al1	1.000	0.925	0.725	0.100	Biso	1.000	Al
Al1	1.000	0.925	0.775	0.125	Biso	1.000	Al
Al1	1.000	0.975	0.725	0.125	Biso	1.000	Al
Al1	1.000	0.975	0.775	0.100	Biso	1.000	Al
Al1	1.000	0.925	0.725	0.150	Biso	1.000	Al
Al1	1.000	0.925	0.775	0.175	Biso	1.000	Al
Al1	1.000	0.975	0.725	0.175	Biso	1.000	Al
Al1	1.000	0.975	0.775	0.150	Biso	1.000	Al
Al1	1.000	0.925	0.725	0.200	Biso	1.000	Al
Al1	1.000	0.925	0.775	0.225	Biso	1.000	Al
Al1	1.000	0.975	0.725	0.225	Biso	1.000	Al
Al1	1.000	0.975	0.775	0.200	Biso	1.000	Al
Al1	1.000	0.925	0.725	0.250	Biso	1.000	Al
Al1	1.000	0.925	0.775	0.275	Biso	1.000	Al
Al1	1.000	0.975	0.725	0.275	Biso	1.000	Al
Al1	1.000	0.975	0.775	0.250	Biso	1.000	Al
Al1	1.000	0.925	0.725	0.300	Biso	1.000	Al
Al1	1.000	0.925	0.775	0.325	Biso	1.000	Al
Al1	1.000	0.975	0.725	0.325	Biso	1.000	Al
Al1	1.000	0.975	0.775	0.300	Biso	1.000	Al
Al1	1.000	0.925	0.725	0.350	Biso	1.000	Al
Al1	1.000	0.925	0.775	0.375	Biso	1.000	Al
Al1	1.000	0.975	0.725	0.375	Biso	1.000	Al
Al1	1.000	0.975	0.775	0.350	Biso	1.000	Al
Al1	1.000	0.925	0.725	0.400	Biso	1.000	Al
Al1	1.000	0.925	0.775	0.425	Biso	1.000	Al
Al1	1.000	0.975	0.725	0.425	Biso	1.000	Al
Al1	1.000	0.975	0.775	0.400	Biso	1.000	Al
Al1	1.000	0.925	0.725	0.450	Biso	1.000	Al
Al1	1.000	0.925	0.775	0.475	Biso	1.000	Al
Al1	1.000	0.975	0.725	0.475	Biso	1.000	Al
Al1	1.000	0.975	0.775	0.450	Biso	1.000	Al
Al1	1.000	0.925	0.725	0.500	Biso	1.000	Al
Al1	1.000	0.925	0.775	0.525	Biso	1.000	Al
Al1	1.000	0.975	0.725	0.525	Biso	1.000	Al
Al1	1.000	0.975	0.775	0.500	Biso	1.000	Al
Al1	1.000	0.925	0.725	0.550	Biso	1.000	Al
Al1	1.000	0.925	0.775	0.575	Biso	1.000	Al
Al1	1.000	0.975	0.725	0.575	Biso	1.000	Al
Al1	1.000	0.975	0.775	0.550	Biso	1.000	Al
Al1	1.000	0.925	0.725	0.600	Biso	1.000	Al
Al1	1.000	0.925	0.775	0.625	Biso	1.000	Al
Al1	1.000	0.975	0.725	0.625	Biso	1.000	Al
Al1	1.000	0.975	0.775	0.600	Biso	1.000	Al
Al1	1.000	0.925	0.725	0.650	Biso	1.000	Al
Al1	1.000	0.925	0.775	0.675	Biso	1.000	Al
Al1	1.000	0.975	0.725	0.675	Biso	1.000	Al
Al1	1.000	0.975	0.775	0.650	Biso	1.000	Al
Al1	1.000	0.925	0.725	0.700	Biso	1.000	Al
Al1	1.000	0.925	0.775	0.725	Biso	1.000	Al
Al1	1.000	0.975	0.725	0.725	Biso	1.000	Al
Al1	1.000	0.975	0.775	0.700	Biso	1.000	Al
Al1	1.000	0.925	0.725	0.750	Biso	1.000	Al
Al1	1.000	0.925	0.775	0.775	Biso	1.000	Al
Al1	1.000	0.975	0.725	0.775	Biso	1.000	Al
Al1	1.000	0.975	0.775	0.750	Biso	1.000	Al
Al1	1.000	0.925	0.725	0.800	Biso	1.000	Al
Al1	1.000	0.925	0.775	0.825	Biso	1.000	Al
Al1	1.000	0.975	0.725	0.825	Biso	1.000	Al
Al1	1.000	0.975	0.775	0.800	Biso	1.000	Al
Al1	1.000	0.925	0.725	0.850	Biso	1.000	Al
Al1	1.000	0.925	0.775	0.875	Biso	1.000	Al
Al1	1.000	0.975	0.725	0.875	Biso	1.000	Al
Al1	1.000	0.975	0.775	0.850	Biso	1.000	Al
Al1	1.000	0.925	0.725	0.900	Biso	1.000	Al
Al1	1.000	0.925	0.775	0.925	Biso	1.000	Al
Al1	1.000	0.975	0.725	0.925	Biso	1.000	Al
Al1	1.000	0.975	0.775	0.900	Biso	1.000	Al
Al1	1.000	0.925	0.725	0.950	Biso	1.000	Al
Al1	1.000	0.925	0.775	0.975	Biso	1.000	Al
Al1	1.000	0.975	0.725	0.975	Biso	1.000	Al
Al1	1.000	0.975	0.775	0.950	Biso	1.000	Al
Al1	1.000	0.925	0.825	0.000	Biso	1.000	Al
Al1	1.000	0.925	0.875	0.025	Biso	1.000	Al
Al1	1.000	0.975	0.825	0.025	Biso	1.000	Al
Al1	1.000	0.975	0.875	0.000	Biso	1.000	Al
Al1	1.000	0.925	0.825	0.050	Biso	1.000	Al
Al1	1.000	0.925	0.875	0.075	Biso	1.000	Al
Al1	1.000	0.975	0.825	0.075	Biso	1.000	Al
Al1	1.000	0.975	0.875	0.050	Biso	1.000	Al
Al1	1.000	0.925	0.825	0.100	Biso	1.000	Al
Al1	1.000	0.925	0.875	0.125	Biso	1.000	Al
Al1	1.000	0.975	0.825	0.125	Biso	1.000	Al
Al1	1.000	0.975	0.875	0.100	Biso	1.000	Al
Al1	1.000	0.925	0.825	0.150	Biso	1.000	Al
Al1	1.000	0.925	0.875	0.175	Biso	1.000	Al
Al1	1.000	0.975	0.825	0.175	Biso	1.000	Al
Al1	1.000	0.975	0.875	0.150	Biso	1.000	Al
Al1	1.000	0.925	0.825	0.200	Biso	1.000	Al
Al1	1.000	0.925	0.875	0.225	Biso	1.000	Al
Al1	1.000	0.975	0.825	0.225	Biso	1.000	Al
Al1	1.000	0.975	0.875	0.200	Biso	1.000	Al
Al1	1.000	0.925	0.825	0.250	Biso	1.000	Al
Al1	1.000	0.925	0.875	0.275	Biso	1.000	Al
Al1	1.000	0.975	0.825	0.275	Biso	1.000	Al
Al1	1.000	0.975	0.875	0.250	Biso	1.000	Al
Al1	1.000	0.925	0.825	0.300	Biso	1.000	Al
Al1	1.000	0.925	0.875	0.325	Biso	1.000	Al
Al1	1.000	0.975	0.825	0.325	Biso	1.000	Al
Al1	1.000	0.975	0.875	0.300	Biso	1.000	Al
Al1	1.000	0.925	0.825	0.350	Biso	1.000	Al
Al1	1.000	0.925	0.875	0.375	Biso	1.000	Al
Al1	1.000	0.975	0.825	0.375	Biso	1.000	Al
Al1	1.000	0.975	0.875	0.350	Biso	1.000	Al
Al1	1.000	0.925	0.825	0.400	Biso	1.000	Al
Al1	1.000	0.925	0.875	0.425	Biso	1.000	Al
Al1	1.000	0.975	0.825	0.425	Biso	1.000	Al
Al1	1.000	0.975	0.875	0.400	Biso	1.000	Al
Al1	1.000	0.925	0.825	0.450	Biso	1.000	Al
Al1	1.000	0.925	0.875	0.475	Biso	1.000	Al
Al1	1.000	0.975	0.825	0.475	Biso	1.000	Al
Al1	1.000	0.975	0.875	0.450	Biso	1.000	Al
Al1	1.000	0.925	0.825	0.500	Biso	1.000	Al
Al1	1.000	0.925	0.875	0.525	Biso	1.000	Al
Al1	1.000	0.975	0.825	0.525	Biso	1.000	Al
Al1	1.000	0.975	0.875	0.500	Biso	1.000	Al
Al1	1.000	0.925	0.825	0.550	Biso	1.000	Al
Al1	1.000	0.925	0.875	0.575	Biso	1.000	Al
Al1	1.000	0.975	0.825	0.575	Biso	1.000	Al
Al1	1.000	0.975	0.875	0.550	Biso	1.000	Al
Al1	1.000	0.925	0.825	0.600	Biso	1.000	Al
Al1	1.000	0.925	0.875	0.625	Biso	1.000	Al
Al1	1.000	0.975	0.825	0.625	Biso	1.000	Al
Al1	1.000	0.975	0.875	0.600	Biso	1.000	Al
Al1	1.000	0.925	0.825	0.650	Biso	1.000	Al
Al1	1.000	0.925	0.875	0.675	Biso	1.000	Al
Al1	1.000	0.975	0.825	0.675	Biso	1.000	Al
Al1	1.000	0.975	0.875	0.650	Biso	1.000	Al
Al1	1.000	0.925	0.825	0.700	Biso	1.000	Al
Al1	1.000	0.925	0.875	0.725	Biso	1.000	Al
Al1	1.000	0.975	0.825	0.725	Biso	1.000	Al
Al1	1.000	0.975	0.875	0.700	Biso	1.000	Al
Al1	1.000	0.925	0.825	0.750	Biso	1.000	Al
Al1	1.000	0.925	0.875	0.775	Biso	1.000	Al
Al1	1.000	0.975	0.825	0.775	Biso	1.000	Al
Al1	1.000	0.975	0.875	0.750	Biso	1.000	Al
Al1	1.000	0.925	0.825	0.800	Biso	1.000	Al
Al1	1.000	0.925	0.875	0.825	Biso	1.000	Al
Al1	1.000	0.975	0.825	0.825	Biso	1.000	Al
Al1	1.000	0.975	0.875	0.800	Biso	1.000	Al
Al1	1.000	0.925	0.825	0.850	Biso	1.000	Al
Al1	1.000	0.925	0.875	0.875	Biso	1.000	Al
Al1	1.000	0.975	0.825	0.875	Biso	1.000	Al
Al1	1.000	0.975	0.875	0.850	Biso	1.000	Al
Al1	1.000	0.925	0.825	0.900	Biso	1.000	Al
Al1	1.000	0.925	0.875	0.925	Biso	1.000	Al
Al1	1.000	0.975	0.825	0.925	Biso	1.000	Al
Al1	1.000	0.975	0.875	0.900	Biso	1.000	Al
Al1	1.000	0.925	0.825	0.950	Biso	1.000	Al
Al1	1.000	0.925	0.875	0.975	Biso	1.000	Al
Al1	1.000	0.975	0.825	0.975	Biso	1.000	Al
Al1	1.000	0.975	0.875	0.950	Biso	1.000	Al
Al1	1.000	0.925	0.925	0.000	Biso	1.000	Al
Al1	1.000	0.925	0.975	0.025	Biso	1.000	Al
Al1	1.000	0.975	0.925	0.025	Biso	1.000	Al
Al1	1.000	0.975	0.975	0.000	Biso	1.000	Al
Al1	1.000	0.925	0.925	0.050	Biso	1.000	Al
Al1	1.000	0.925	0.975	0.075	Biso	1.000	Al
Al1	1.000	0.975	0.925	0.075	Biso	1.000	Al
Al1	1.000	0.975	0.975	0.050	Biso	1.000	Al
Al1	1.000	0.925	0.925	0.100	Biso	1.000	Al
Al1	1.000	0.925	0.975	0.125	Biso	1.000	Al
Al1	1.000	0.975	0.925	0.125	Biso	1.000	Al
Al1	1.000	0.975	0.975	0.100	Biso	1.000	Al
Al1	1.000	0.925	0.925	0.150	Biso	1.000	Al
Al1	1.000	0.925	0.975	0.175	Biso	1.000	Al
Al1	1.000	0.975	0.925	0.175	Biso	1.000	Al
Al1	1.000	0.975	0.975	0.150	Biso	1.000	Al
Al1	1.000	0.925	0.925	0.200	Biso	1.000	Al
Al1	1.000	0.925	0.975	0.225	Biso	1.000	Al
Al1	1.000	0.975	0.925	0.225	Biso	1.000	Al
Al1	1.000	0.975	0.975	0.200	Biso	1.000	Al
Al1	1.000	0.925	0.925	0.250	Biso	1.000	Al
Al1	1.000	0.925	0.975	0.275	Biso	1.000	Al
Al1	1.000	0.975	0.925	0.275	Biso	1.000	Al
Al1	1.000	0.975	0.975	0.250	Biso	1.000	Al
Al1	1.000	0.925	0.925	0.300	Biso	1.000	Al
Al1	1.000	0.925	0.975	0.325	Biso	1.000	Al
Al1	1.000	0.975	0.925	0.325	Biso	1.000	Al
Al1	1.000	0.975	0.975	0.300	Biso	1.000	Al
Al1	1.000	0.925	0.925	0.350	Biso	1.000	Al
Al1	1.000	0.925	0.975	0.375	Biso	1.000	Al
Al1	1.000	0.975	0.925	0.375	Biso	1.000	Al
Al1	1.000	0.975	0.975	0.350	Biso	1.000	Al
Al1	1.000	0.925	0.925	0.400	Biso	1.000	Al
Al1	1.000	0.925	0.975	0.425	Biso	1.000	Al
Al1	1.000	0.975	0.925	0.425	Biso	1.000	Al
Al1	1.000	0.975	0.975	0.400	Biso	1.000	Al
Al1	1.000	0.925	0.925	0.450	Biso	1.000	Al
Al1	1.000	0.925	0.975	0.475	Biso	1.000	Al
Al1	1.000	0.975	0.925	0.475	Biso	1.000	Al
Al1	1.000	0.975	0.975	0.450	Biso	1.000	Al
Al1	1.000	0.925	0.925	0.500	Biso	1.000	Al
Al1	1.000	0.925	0.975	0.525	Biso	1.000	Al
Al1	1.000	0.975	0.925	0.525	Biso	1.000	Al
Al1	1.000	0.975	0.975	0.500	Biso	1.000	Al
Al1	1.000	0.925	0.925	0.550	Biso	1.000	Al
Al1	1.000	0.925	0.975	0.575	Biso	1.000	Al
Al1	1.000	0.975	0.925	0.575	Biso	1.000	Al
Al1	1.000	0.975	0.975	0.550	Biso	1.000	Al
Al1	1.000	0.925	0.925	0.600	Biso	1.000	Al
Al1	1.000	0.925	0.975	0.625	Biso	1.000	Al
Al1	1.000	0.975	0.925	0.625	Biso	1.000	Al
Al1	1.000	0.975	0.975	0.600	Biso	1.000	Al
Al1	1.000	0.925	0.925	0.650	Biso	1.000	Al
Al1	1.000	0.925	0.975	0.675	Biso	1.000	Al
Al1	1.000	0.975	0.925	0.675	Biso	1.000	Al
Al1	1.000	0.975	0.975	0.650	Biso	1.000	Al
Al1	1.000	0.925	0.925	0.700	Biso	1.000	Al
Al1	1.000	0.925	0.975	0.725	Biso	1.000	Al
Al1	1.000	0.975	0.925	0.725	Biso	1.000	Al
Al1	1.000	0.975	0.975	0.700	Biso	1.000	Al
Al1	1.000	0.925	0.925	0.750	Biso	1.000	Al
Al1	1.000	0.925	0.975	0.775	Biso	1.000	Al
Al1	1.000	0.975	0.925	0.775	Biso	1.000	Al
Al1	1.000	0.975	0.975	0.750	Biso	1.000	Al
Al1	1.000	0.925	0.925	0.800	Biso	1.000	Al
Al1	1.000	0.925	0.975	0.825	Biso	1.000	Al
Al1	1.000	0.975	0.925	0.825	Biso	1.000	Al
Al1	1.000	0.975	0.975	0.800	Biso	1.000	Al
Al1	1.000	0.925	0.925	0.850	Biso	1.000	Al
Al1	1.000	0.925	0.975	0.875	Biso	1.000	Al
Al1	1.000	0.975	0.925	0.875	Biso	1.000	Al
Al1	1.000	0.975	0.975	0.850	Biso	1.000	Al
Al1	1.000	0.925	0.925	0.900	Biso	1.000	Al
Al1	1.000	0.925	0.975	0.925	Biso	1.000	Al
Al1	1.000	0.975	0.925	0.925	Biso	1.000	Al
Al1	1.000	0.975	0.975	0.900	Biso	1.000	Al
Al1	1.000	0.925	0.925	0.950	Biso	1.000	Al
Al1	1.000	0.925	0.975	0.975	Biso	1.000	Al
Al1	1.000	0.975	0.925	0.975	Biso	1.000	Al
Al1	1.000	0.975	0.975	0.950	Biso	1.000	Al

