data_image0
_cell_length_a       40.5
_cell_length_b       40.5
_cell_length_c       81
_cell_angle_alpha    90
_cell_angle_beta     90
_cell_angle_gamma    90

_symmetry_space_group_name_H-M    "P 1"
_symmetry_int_tables_number       1

loop_
  _symmetry_equiv_pos_as_xyz
  'x, y, z'

loop_
  _atom_site_label
  _atom_site_occupancy
  _atom_site_fract_x
  _atom_site_fract_y
  _atom_site_fract_z
  _atom_site_thermal_displace_type
  _atom_site_B_iso_or_equiv
  _atom_site_type_symbol
  Au1      1.0000 0.02500  0.02500  0.00000  Biso   1.000  Au
  Al1      1.0000 0.02500  0.07500  0.02500  Biso   1.000  Al
  Al2      1.0000 0.07500  0.02500  0.02500  Biso   1.000  Al
  Au2      1.0000 0.07500  0.07500  0.00000  Biso   1.000  Au
  Au3      1.0000 0.02500  0.02500  0.05000  Biso   1.000  Au
  Al3      1.0000 0.02500  0.07500  0.07500  Biso   1.000  Al
  Al4      1.0000 0.07500  0.02500  0.07500  Biso   1.000  Al
  Au4      1.0000 0.07500  0.07500  0.05000  Biso   1.000  Au
  Au5      1.0000 0.02500  0.02500  0.10000  Biso   1.000  Au
  Al5      1.0000 0.02500  0.07500  0.12500  Biso   1.000  Al
  Al6      1.0000 0.07500  0.02500  0.12500  Biso   1.000  Al
  Au6      1.0000 0.07500  0.07500  0.10000  Biso   1.000  Au
  Au7      1.0000 0.02500  0.02500  0.15000  Biso   1.000  Au
  Al7      1.0000 0.02500  0.07500  0.17500  Biso   1.000  Al
  Al8      1.0000 0.07500  0.02500  0.17500  Biso   1.000  Al
  Au8      1.0000 0.07500  0.07500  0.15000  Biso   1.000  Au
  Au9      1.0000 0.02500  0.02500  0.20000  Biso   1.000  Au
  Al9      1.0000 0.02500  0.07500  0.22500  Biso   1.000  Al
  Al10     1.0000 0.07500  0.02500  0.22500  Biso   1.000  Al
  Au10     1.0000 0.07500  0.07500  0.20000  Biso   1.000  Au
  Au11     1.0000 0.02500  0.02500  0.25000  Biso   1.000  Au
  Al11     1.0000 0.02500  0.07500  0.27500  Biso   1.000  Al
  Al12     1.0000 0.07500  0.02500  0.27500  Biso   1.000  Al
  Au12     1.0000 0.07500  0.07500  0.25000  Biso   1.000  Au
  Au13     1.0000 0.02500  0.02500  0.30000  Biso   1.000  Au
  Al13     1.0000 0.02500  0.07500  0.32500  Biso   1.000  Al
  Al14     1.0000 0.07500  0.02500  0.32500  Biso   1.000  Al
  Au14     1.0000 0.07500  0.07500  0.30000  Biso   1.000  Au
  Au15     1.0000 0.02500  0.02500  0.35000  Biso   1.000  Au
  Al15     1.0000 0.02500  0.07500  0.37500  Biso   1.000  Al
  Al16     1.0000 0.07500  0.02500  0.37500  Biso   1.000  Al
  Au16     1.0000 0.07500  0.07500  0.35000  Biso   1.000  Au
  Au17     1.0000 0.02500  0.02500  0.40000  Biso   1.000  Au
  Al17     1.0000 0.02500  0.07500  0.42500  Biso   1.000  Al
  Al18     1.0000 0.07500  0.02500  0.42500  Biso   1.000  Al
  Au18     1.0000 0.07500  0.07500  0.40000  Biso   1.000  Au
  Au19     1.0000 0.02500  0.02500  0.45000  Biso   1.000  Au
  Al19     1.0000 0.02500  0.07500  0.47500  Biso   1.000  Al
  Al20     1.0000 0.07500  0.02500  0.47500  Biso   1.000  Al
  Au20     1.0000 0.07500  0.07500  0.45000  Biso   1.000  Au
  Al21     1.0000 0.02500  0.02500  0.50000  Biso   1.000  Al
  Al22     1.0000 0.02500  0.07500  0.52500  Biso   1.000  Al
  Al23     1.0000 0.07500  0.02500  0.52500  Biso   1.000  Al
  Al24     1.0000 0.07500  0.07500  0.50000  Biso   1.000  Al
  Al25     1.0000 0.02500  0.02500  0.55000  Biso   1.000  Al
  Al26     1.0000 0.02500  0.07500  0.57500  Biso   1.000  Al
  Al27     1.0000 0.07500  0.02500  0.57500  Biso   1.000  Al
  Al28     1.0000 0.07500  0.07500  0.55000  Biso   1.000  Al
  Al29     1.0000 0.02500  0.02500  0.60000  Biso   1.000  Al
  Al30     1.0000 0.02500  0.07500  0.62500  Biso   1.000  Al
  Al31     1.0000 0.07500  0.02500  0.62500  Biso   1.000  Al
  Al32     1.0000 0.07500  0.07500  0.60000  Biso   1.000  Al
  Al33     1.0000 0.02500  0.02500  0.65000  Biso   1.000  Al
  Al34     1.0000 0.02500  0.07500  0.67500  Biso   1.000  Al
  Al35     1.0000 0.07500  0.02500  0.67500  Biso   1.000  Al
  Al36     1.0000 0.07500  0.07500  0.65000  Biso   1.000  Al
  Al37     1.0000 0.02500  0.02500  0.70000  Biso   1.000  Al
  Al38     1.0000 0.02500  0.07500  0.72500  Biso   1.000  Al
  Al39     1.0000 0.07500  0.02500  0.72500  Biso   1.000  Al
  Al40     1.0000 0.07500  0.07500  0.70000  Biso   1.000  Al
  Al41     1.0000 0.02500  0.02500  0.75000  Biso   1.000  Al
  Al42     1.0000 0.02500  0.07500  0.77500  Biso   1.000  Al
  Al43     1.0000 0.07500  0.02500  0.77500  Biso   1.000  Al
  Al44     1.0000 0.07500  0.07500  0.75000  Biso   1.000  Al
  Al45     1.0000 0.02500  0.02500  0.80000  Biso   1.000  Al
  Al46     1.0000 0.02500  0.07500  0.82500  Biso   1.000  Al
  Al47     1.0000 0.07500  0.02500  0.82500  Biso   1.000  Al
  Al48     1.0000 0.07500  0.07500  0.80000  Biso   1.000  Al
  Al49     1.0000 0.02500  0.02500  0.85000  Biso   1.000  Al
  Al50     1.0000 0.02500  0.07500  0.87500  Biso   1.000  Al
  Al51     1.0000 0.07500  0.02500  0.87500  Biso   1.000  Al
  Al52     1.0000 0.07500  0.07500  0.85000  Biso   1.000  Al
  Al53     1.0000 0.02500  0.02500  0.90000  Biso   1.000  Al
  Al54     1.0000 0.02500  0.07500  0.92500  Biso   1.000  Al
  Al55     1.0000 0.07500  0.02500  0.92500  Biso   1.000  Al
  Al56     1.0000 0.07500  0.07500  0.90000  Biso   1.000  Al
  Al57     1.0000 0.02500  0.02500  0.95000  Biso   1.000  Al
  Al58     1.0000 0.02500  0.07500  0.97500  Biso   1.000  Al
  Al59     1.0000 0.07500  0.02500  0.97500  Biso   1.000  Al
  Al60     1.0000 0.07500  0.07500  0.95000  Biso   1.000  Al
  Al61     1.0000 0.02500  0.12500  0.00000  Biso   1.000  Al
  Al62     1.0000 0.02500  0.17500  0.02500  Biso   1.000  Al
  Al63     1.0000 0.07500  0.12500  0.02500  Biso   1.000  Al
  Al64     1.0000 0.07500  0.17500  0.00000  Biso   1.000  Al
  Al65     1.0000 0.02500  0.12500  0.05000  Biso   1.000  Al
  Al66     1.0000 0.02500  0.17500  0.07500  Biso   1.000  Al
  Al67     1.0000 0.07500  0.12500  0.07500  Biso   1.000  Al
  Al68     1.0000 0.07500  0.17500  0.05000  Biso   1.000  Al
  Al69     1.0000 0.02500  0.12500  0.10000  Biso   1.000  Al
  Al70     1.0000 0.02500  0.17500  0.12500  Biso   1.000  Al
  Al71     1.0000 0.07500  0.12500  0.12500  Biso   1.000  Al
  Al72     1.0000 0.07500  0.17500  0.10000  Biso   1.000  Al
  Al73     1.0000 0.02500  0.12500  0.15000  Biso   1.000  Al
  Al74     1.0000 0.02500  0.17500  0.17500  Biso   1.000  Al
  Al75     1.0000 0.07500  0.12500  0.17500  Biso   1.000  Al
  Al76     1.0000 0.07500  0.17500  0.15000  Biso   1.000  Al
  Al77     1.0000 0.02500  0.12500  0.20000  Biso   1.000  Al
  Al78     1.0000 0.02500  0.17500  0.22500  Biso   1.000  Al
  Al79     1.0000 0.07500  0.12500  0.22500  Biso   1.000  Al
  Al80     1.0000 0.07500  0.17500  0.20000  Biso   1.000  Al
  Al81     1.0000 0.02500  0.12500  0.25000  Biso   1.000  Al
  Al82     1.0000 0.02500  0.17500  0.27500  Biso   1.000  Al
  Al83     1.0000 0.07500  0.12500  0.27500  Biso   1.000  Al
  Al84     1.0000 0.07500  0.17500  0.25000  Biso   1.000  Al
  Al85     1.0000 0.02500  0.12500  0.30000  Biso   1.000  Al
  Al86     1.0000 0.02500  0.17500  0.32500  Biso   1.000  Al
  Al87     1.0000 0.07500  0.12500  0.32500  Biso   1.000  Al
  Al88     1.0000 0.07500  0.17500  0.30000  Biso   1.000  Al
  Al89     1.0000 0.02500  0.12500  0.35000  Biso   1.000  Al
  Al90     1.0000 0.02500  0.17500  0.37500  Biso   1.000  Al
  Al91     1.0000 0.07500  0.12500  0.37500  Biso   1.000  Al
  Al92     1.0000 0.07500  0.17500  0.35000  Biso   1.000  Al
  Al93     1.0000 0.02500  0.12500  0.40000  Biso   1.000  Al
  Al94     1.0000 0.02500  0.17500  0.42500  Biso   1.000  Al
  Al95     1.0000 0.07500  0.12500  0.42500  Biso   1.000  Al
  Al96     1.0000 0.07500  0.17500  0.40000  Biso   1.000  Al
  Al97     1.0000 0.02500  0.12500  0.45000  Biso   1.000  Al
  Al98     1.0000 0.02500  0.17500  0.47500  Biso   1.000  Al
  Al99     1.0000 0.07500  0.12500  0.47500  Biso   1.000  Al
  Al100    1.0000 0.07500  0.17500  0.45000  Biso   1.000  Al
  Al101    1.0000 0.02500  0.12500  0.50000  Biso   1.000  Al
  Al102    1.0000 0.02500  0.17500  0.52500  Biso   1.000  Al
  Al103    1.0000 0.07500  0.12500  0.52500  Biso   1.000  Al
  Al104    1.0000 0.07500  0.17500  0.50000  Biso   1.000  Al
  Al105    1.0000 0.02500  0.12500  0.55000  Biso   1.000  Al
  Al106    1.0000 0.02500  0.17500  0.57500  Biso   1.000  Al
  Al107    1.0000 0.07500  0.12500  0.57500  Biso   1.000  Al
  Al108    1.0000 0.07500  0.17500  0.55000  Biso   1.000  Al
  Al109    1.0000 0.02500  0.12500  0.60000  Biso   1.000  Al
  Al110    1.0000 0.02500  0.17500  0.62500  Biso   1.000  Al
  Al111    1.0000 0.07500  0.12500  0.62500  Biso   1.000  Al
  Al112    1.0000 0.07500  0.17500  0.60000  Biso   1.000  Al
  Al113    1.0000 0.02500  0.12500  0.65000  Biso   1.000  Al
  Al114    1.0000 0.02500  0.17500  0.67500  Biso   1.000  Al
  Al115    1.0000 0.07500  0.12500  0.67500  Biso   1.000  Al
  Al116    1.0000 0.07500  0.17500  0.65000  Biso   1.000  Al
  Al117    1.0000 0.02500  0.12500  0.70000  Biso   1.000  Al
  Al118    1.0000 0.02500  0.17500  0.72500  Biso   1.000  Al
  Al119    1.0000 0.07500  0.12500  0.72500  Biso   1.000  Al
  Al120    1.0000 0.07500  0.17500  0.70000  Biso   1.000  Al
  Al121    1.0000 0.02500  0.12500  0.75000  Biso   1.000  Al
  Al122    1.0000 0.02500  0.17500  0.77500  Biso   1.000  Al
  Al123    1.0000 0.07500  0.12500  0.77500  Biso   1.000  Al
  Al124    1.0000 0.07500  0.17500  0.75000  Biso   1.000  Al
  Al125    1.0000 0.02500  0.12500  0.80000  Biso   1.000  Al
  Al126    1.0000 0.02500  0.17500  0.82500  Biso   1.000  Al
  Al127    1.0000 0.07500  0.12500  0.82500  Biso   1.000  Al
  Al128    1.0000 0.07500  0.17500  0.80000  Biso   1.000  Al
  Al129    1.0000 0.02500  0.12500  0.85000  Biso   1.000  Al
  Al130    1.0000 0.02500  0.17500  0.87500  Biso   1.000  Al
  Al131    1.0000 0.07500  0.12500  0.87500  Biso   1.000  Al
  Al132    1.0000 0.07500  0.17500  0.85000  Biso   1.000  Al
  Al133    1.0000 0.02500  0.12500  0.90000  Biso   1.000  Al
  Al134    1.0000 0.02500  0.17500  0.92500  Biso   1.000  Al
  Al135    1.0000 0.07500  0.12500  0.92500  Biso   1.000  Al
  Al136    1.0000 0.07500  0.17500  0.90000  Biso   1.000  Al
  Al137    1.0000 0.02500  0.12500  0.95000  Biso   1.000  Al
  Al138    1.0000 0.02500  0.17500  0.97500  Biso   1.000  Al
  Al139    1.0000 0.07500  0.12500  0.97500  Biso   1.000  Al
  Al140    1.0000 0.07500  0.17500  0.95000  Biso   1.000  Al
  Al141    1.0000 0.02500  0.22500  0.00000  Biso   1.000  Al
  Al142    1.0000 0.02500  0.27500  0.02500  Biso   1.000  Al
  Al143    1.0000 0.07500  0.22500  0.02500  Biso   1.000  Al
  Al144    1.0000 0.07500  0.27500  0.00000  Biso   1.000  Al
  Al145    1.0000 0.02500  0.22500  0.05000  Biso   1.000  Al
  Al146    1.0000 0.02500  0.27500  0.07500  Biso   1.000  Al
  Al147    1.0000 0.07500  0.22500  0.07500  Biso   1.000  Al
  Al148    1.0000 0.07500  0.27500  0.05000  Biso   1.000  Al
  Al149    1.0000 0.02500  0.22500  0.10000  Biso   1.000  Al
  Al150    1.0000 0.02500  0.27500  0.12500  Biso   1.000  Al
  Al151    1.0000 0.07500  0.22500  0.12500  Biso   1.000  Al
  Al152    1.0000 0.07500  0.27500  0.10000  Biso   1.000  Al
  Al153    1.0000 0.02500  0.22500  0.15000  Biso   1.000  Al
  Al154    1.0000 0.02500  0.27500  0.17500  Biso   1.000  Al
  Al155    1.0000 0.07500  0.22500  0.17500  Biso   1.000  Al
  Al156    1.0000 0.07500  0.27500  0.15000  Biso   1.000  Al
  Al157    1.0000 0.02500  0.22500  0.20000  Biso   1.000  Al
  Al158    1.0000 0.02500  0.27500  0.22500  Biso   1.000  Al
  Al159    1.0000 0.07500  0.22500  0.22500  Biso   1.000  Al
  Al160    1.0000 0.07500  0.27500  0.20000  Biso   1.000  Al
  Al161    1.0000 0.02500  0.22500  0.25000  Biso   1.000  Al
  Al162    1.0000 0.02500  0.27500  0.27500  Biso   1.000  Al
  Al163    1.0000 0.07500  0.22500  0.27500  Biso   1.000  Al
  Al164    1.0000 0.07500  0.27500  0.25000  Biso   1.000  Al
  Al165    1.0000 0.02500  0.22500  0.30000  Biso   1.000  Al
  Al166    1.0000 0.02500  0.27500  0.32500  Biso   1.000  Al
  Al167    1.0000 0.07500  0.22500  0.32500  Biso   1.000  Al
  Al168    1.0000 0.07500  0.27500  0.30000  Biso   1.000  Al
  Al169    1.0000 0.02500  0.22500  0.35000  Biso   1.000  Al
  Al170    1.0000 0.02500  0.27500  0.37500  Biso   1.000  Al
  Al171    1.0000 0.07500  0.22500  0.37500  Biso   1.000  Al
  Al172    1.0000 0.07500  0.27500  0.35000  Biso   1.000  Al
  Al173    1.0000 0.02500  0.22500  0.40000  Biso   1.000  Al
  Al174    1.0000 0.02500  0.27500  0.42500  Biso   1.000  Al
  Al175    1.0000 0.07500  0.22500  0.42500  Biso   1.000  Al
  Al176    1.0000 0.07500  0.27500  0.40000  Biso   1.000  Al
  Al177    1.0000 0.02500  0.22500  0.45000  Biso   1.000  Al
  Al178    1.0000 0.02500  0.27500  0.47500  Biso   1.000  Al
  Al179    1.0000 0.07500  0.22500  0.47500  Biso   1.000  Al
  Al180    1.0000 0.07500  0.27500  0.45000  Biso   1.000  Al
  Al181    1.0000 0.02500  0.22500  0.50000  Biso   1.000  Al
  Al182    1.0000 0.02500  0.27500  0.52500  Biso   1.000  Al
  Al183    1.0000 0.07500  0.22500  0.52500  Biso   1.000  Al
  Al184    1.0000 0.07500  0.27500  0.50000  Biso   1.000  Al
  Al185    1.0000 0.02500  0.22500  0.55000  Biso   1.000  Al
  Al186    1.0000 0.02500  0.27500  0.57500  Biso   1.000  Al
  Al187    1.0000 0.07500  0.22500  0.57500  Biso   1.000  Al
  Al188    1.0000 0.07500  0.27500  0.55000  Biso   1.000  Al
  Al189    1.0000 0.02500  0.22500  0.60000  Biso   1.000  Al
  Al190    1.0000 0.02500  0.27500  0.62500  Biso   1.000  Al
  Al191    1.0000 0.07500  0.22500  0.62500  Biso   1.000  Al
  Al192    1.0000 0.07500  0.27500  0.60000  Biso   1.000  Al
  Al193    1.0000 0.02500  0.22500  0.65000  Biso   1.000  Al
  Al194    1.0000 0.02500  0.27500  0.67500  Biso   1.000  Al
  Al195    1.0000 0.07500  0.22500  0.67500  Biso   1.000  Al
  Al196    1.0000 0.07500  0.27500  0.65000  Biso   1.000  Al
  Al197    1.0000 0.02500  0.22500  0.70000  Biso   1.000  Al
  Al198    1.0000 0.02500  0.27500  0.72500  Biso   1.000  Al
  Al199    1.0000 0.07500  0.22500  0.72500  Biso   1.000  Al
  Al200    1.0000 0.07500  0.27500  0.70000  Biso   1.000  Al
  Al201    1.0000 0.02500  0.22500  0.75000  Biso   1.000  Al
  Al202    1.0000 0.02500  0.27500  0.77500  Biso   1.000  Al
  Al203    1.0000 0.07500  0.22500  0.77500  Biso   1.000  Al
  Al204    1.0000 0.07500  0.27500  0.75000  Biso   1.000  Al
  Al205    1.0000 0.02500  0.22500  0.80000  Biso   1.000  Al
  Al206    1.0000 0.02500  0.27500  0.82500  Biso   1.000  Al
  Al207    1.0000 0.07500  0.22500  0.82500  Biso   1.000  Al
  Al208    1.0000 0.07500  0.27500  0.80000  Biso   1.000  Al
  Al209    1.0000 0.02500  0.22500  0.85000  Biso   1.000  Al
  Al210    1.0000 0.02500  0.27500  0.87500  Biso   1.000  Al
  Al211    1.0000 0.07500  0.22500  0.87500  Biso   1.000  Al
  Al212    1.0000 0.07500  0.27500  0.85000  Biso   1.000  Al
  Al213    1.0000 0.02500  0.22500  0.90000  Biso   1.000  Al
  Al214    1.0000 0.02500  0.27500  0.92500  Biso   1.000  Al
  Al215    1.0000 0.07500  0.22500  0.92500  Biso   1.000  Al
  Al216    1.0000 0.07500  0.27500  0.90000  Biso   1.000  Al
  Al217    1.0000 0.02500  0.22500  0.95000  Biso   1.000  Al
  Al218    1.0000 0.02500  0.27500  0.97500  Biso   1.000  Al
  Al219    1.0000 0.07500  0.22500  0.97500  Biso   1.000  Al
  Al220    1.0000 0.07500  0.27500  0.95000  Biso   1.000  Al
  Al221    1.0000 0.02500  0.32500  0.00000  Biso   1.000  Al
  Al222    1.0000 0.02500  0.37500  0.02500  Biso   1.000  Al
  Al223    1.0000 0.07500  0.32500  0.02500  Biso   1.000  Al
  Al224    1.0000 0.07500  0.37500  0.00000  Biso   1.000  Al
  Al225    1.0000 0.02500  0.32500  0.05000  Biso   1.000  Al
  Al226    1.0000 0.02500  0.37500  0.07500  Biso   1.000  Al
  Al227    1.0000 0.07500  0.32500  0.07500  Biso   1.000  Al
  Al228    1.0000 0.07500  0.37500  0.05000  Biso   1.000  Al
  Al229    1.0000 0.02500  0.32500  0.10000  Biso   1.000  Al
  Al230    1.0000 0.02500  0.37500  0.12500  Biso   1.000  Al
  Al231    1.0000 0.07500  0.32500  0.12500  Biso   1.000  Al
  Al232    1.0000 0.07500  0.37500  0.10000  Biso   1.000  Al
  Al233    1.0000 0.02500  0.32500  0.15000  Biso   1.000  Al
  Al234    1.0000 0.02500  0.37500  0.17500  Biso   1.000  Al
  Al235    1.0000 0.07500  0.32500  0.17500  Biso   1.000  Al
  Al236    1.0000 0.07500  0.37500  0.15000  Biso   1.000  Al
  Al237    1.0000 0.02500  0.32500  0.20000  Biso   1.000  Al
  Al238    1.0000 0.02500  0.37500  0.22500  Biso   1.000  Al
  Al239    1.0000 0.07500  0.32500  0.22500  Biso   1.000  Al
  Al240    1.0000 0.07500  0.37500  0.20000  Biso   1.000  Al
  Al241    1.0000 0.02500  0.32500  0.25000  Biso   1.000  Al
  Al242    1.0000 0.02500  0.37500  0.27500  Biso   1.000  Al
  Al243    1.0000 0.07500  0.32500  0.27500  Biso   1.000  Al
  Al244    1.0000 0.07500  0.37500  0.25000  Biso   1.000  Al
  Al245    1.0000 0.02500  0.32500  0.30000  Biso   1.000  Al
  Al246    1.0000 0.02500  0.37500  0.32500  Biso   1.000  Al
  Al247    1.0000 0.07500  0.32500  0.32500  Biso   1.000  Al
  Al248    1.0000 0.07500  0.37500  0.30000  Biso   1.000  Al
  Al249    1.0000 0.02500  0.32500  0.35000  Biso   1.000  Al
  Al250    1.0000 0.02500  0.37500  0.37500  Biso   1.000  Al
  Al251    1.0000 0.07500  0.32500  0.37500  Biso   1.000  Al
  Al252    1.0000 0.07500  0.37500  0.35000  Biso   1.000  Al
  Al253    1.0000 0.02500  0.32500  0.40000  Biso   1.000  Al
  Al254    1.0000 0.02500  0.37500  0.42500  Biso   1.000  Al
  Al255    1.0000 0.07500  0.32500  0.42500  Biso   1.000  Al
  Al256    1.0000 0.07500  0.37500  0.40000  Biso   1.000  Al
  Al257    1.0000 0.02500  0.32500  0.45000  Biso   1.000  Al
  Al258    1.0000 0.02500  0.37500  0.47500  Biso   1.000  Al
  Al259    1.0000 0.07500  0.32500  0.47500  Biso   1.000  Al
  Al260    1.0000 0.07500  0.37500  0.45000  Biso   1.000  Al
  Al261    1.0000 0.02500  0.32500  0.50000  Biso   1.000  Al
  Al262    1.0000 0.02500  0.37500  0.52500  Biso   1.000  Al
  Al263    1.0000 0.07500  0.32500  0.52500  Biso   1.000  Al
  Al264    1.0000 0.07500  0.37500  0.50000  Biso   1.000  Al
  Al265    1.0000 0.02500  0.32500  0.55000  Biso   1.000  Al
  Al266    1.0000 0.02500  0.37500  0.57500  Biso   1.000  Al
  Al267    1.0000 0.07500  0.32500  0.57500  Biso   1.000  Al
  Al268    1.0000 0.07500  0.37500  0.55000  Biso   1.000  Al
  Al269    1.0000 0.02500  0.32500  0.60000  Biso   1.000  Al
  Al270    1.0000 0.02500  0.37500  0.62500  Biso   1.000  Al
  Al271    1.0000 0.07500  0.32500  0.62500  Biso   1.000  Al
  Al272    1.0000 0.07500  0.37500  0.60000  Biso   1.000  Al
  Al273    1.0000 0.02500  0.32500  0.65000  Biso   1.000  Al
  Al274    1.0000 0.02500  0.37500  0.67500  Biso   1.000  Al
  Al275    1.0000 0.07500  0.32500  0.67500  Biso   1.000  Al
  Al276    1.0000 0.07500  0.37500  0.65000  Biso   1.000  Al
  Al277    1.0000 0.02500  0.32500  0.70000  Biso   1.000  Al
  Al278    1.0000 0.02500  0.37500  0.72500  Biso   1.000  Al
  Al279    1.0000 0.07500  0.32500  0.72500  Biso   1.000  Al
  Al280    1.0000 0.07500  0.37500  0.70000  Biso   1.000  Al
  Al281    1.0000 0.02500  0.32500  0.75000  Biso   1.000  Al
  Al282    1.0000 0.02500  0.37500  0.77500  Biso   1.000  Al
  Al283    1.0000 0.07500  0.32500  0.77500  Biso   1.000  Al
  Al284    1.0000 0.07500  0.37500  0.75000  Biso   1.000  Al
  Al285    1.0000 0.02500  0.32500  0.80000  Biso   1.000  Al
  Al286    1.0000 0.02500  0.37500  0.82500  Biso   1.000  Al
  Al287    1.0000 0.07500  0.32500  0.82500  Biso   1.000  Al
  Al288    1.0000 0.07500  0.37500  0.80000  Biso   1.000  Al
  Al289    1.0000 0.02500  0.32500  0.85000  Biso   1.000  Al
  Al290    1.0000 0.02500  0.37500  0.87500  Biso   1.000  Al
  Al291    1.0000 0.07500  0.32500  0.87500  Biso   1.000  Al
  Al292    1.0000 0.07500  0.37500  0.85000  Biso   1.000  Al
  Al293    1.0000 0.02500  0.32500  0.90000  Biso   1.000  Al
  Al294    1.0000 0.02500  0.37500  0.92500  Biso   1.000  Al
  Al295    1.0000 0.07500  0.32500  0.92500  Biso   1.000  Al
  Al296    1.0000 0.07500  0.37500  0.90000  Biso   1.000  Al
  Al297    1.0000 0.02500  0.32500  0.95000  Biso   1.000  Al
  Al298    1.0000 0.02500  0.37500  0.97500  Biso   1.000  Al
  Al299    1.0000 0.07500  0.32500  0.97500  Biso   1.000  Al
  Al300    1.0000 0.07500  0.37500  0.95000  Biso   1.000  Al
  Al301    1.0000 0.02500  0.42500  0.00000  Biso   1.000  Al
  Al302    1.0000 0.02500  0.47500  0.02500  Biso   1.000  Al
  Al303    1.0000 0.07500  0.42500  0.02500  Biso   1.000  Al
  Al304    1.0000 0.07500  0.47500  0.00000  Biso   1.000  Al
  Al305    1.0000 0.02500  0.42500  0.05000  Biso   1.000  Al
  Al306    1.0000 0.02500  0.47500  0.07500  Biso   1.000  Al
  Al307    1.0000 0.07500  0.42500  0.07500  Biso   1.000  Al
  Al308    1.0000 0.07500  0.47500  0.05000  Biso   1.000  Al
  Al309    1.0000 0.02500  0.42500  0.10000  Biso   1.000  Al
  Al310    1.0000 0.02500  0.47500  0.12500  Biso   1.000  Al
  Al311    1.0000 0.07500  0.42500  0.12500  Biso   1.000  Al
  Al312    1.0000 0.07500  0.47500  0.10000  Biso   1.000  Al
  Al313    1.0000 0.02500  0.42500  0.15000  Biso   1.000  Al
  Al314    1.0000 0.02500  0.47500  0.17500  Biso   1.000  Al
  Al315    1.0000 0.07500  0.42500  0.17500  Biso   1.000  Al
  Al316    1.0000 0.07500  0.47500  0.15000  Biso   1.000  Al
  Al317    1.0000 0.02500  0.42500  0.20000  Biso   1.000  Al
  Al318    1.0000 0.02500  0.47500  0.22500  Biso   1.000  Al
  Al319    1.0000 0.07500  0.42500  0.22500  Biso   1.000  Al
  Al320    1.0000 0.07500  0.47500  0.20000  Biso   1.000  Al
  Al321    1.0000 0.02500  0.42500  0.25000  Biso   1.000  Al
  Al322    1.0000 0.02500  0.47500  0.27500  Biso   1.000  Al
  Al323    1.0000 0.07500  0.42500  0.27500  Biso   1.000  Al
  Al324    1.0000 0.07500  0.47500  0.25000  Biso   1.000  Al
  Al325    1.0000 0.02500  0.42500  0.30000  Biso   1.000  Al
  Al326    1.0000 0.02500  0.47500  0.32500  Biso   1.000  Al
  Al327    1.0000 0.07500  0.42500  0.32500  Biso   1.000  Al
  Al328    1.0000 0.07500  0.47500  0.30000  Biso   1.000  Al
  Al329    1.0000 0.02500  0.42500  0.35000  Biso   1.000  Al
  Al330    1.0000 0.02500  0.47500  0.37500  Biso   1.000  Al
  Al331    1.0000 0.07500  0.42500  0.37500  Biso   1.000  Al
  Al332    1.0000 0.07500  0.47500  0.35000  Biso   1.000  Al
  Al333    1.0000 0.02500  0.42500  0.40000  Biso   1.000  Al
  Al334    1.0000 0.02500  0.47500  0.42500  Biso   1.000  Al
  Al335    1.0000 0.07500  0.42500  0.42500  Biso   1.000  Al
  Al336    1.0000 0.07500  0.47500  0.40000  Biso   1.000  Al
  Al337    1.0000 0.02500  0.42500  0.45000  Biso   1.000  Al
  Al338    1.0000 0.02500  0.47500  0.47500  Biso   1.000  Al
  Al339    1.0000 0.07500  0.42500  0.47500  Biso   1.000  Al
  Al340    1.0000 0.07500  0.47500  0.45000  Biso   1.000  Al
  Al341    1.0000 0.02500  0.42500  0.50000  Biso   1.000  Al
  Al342    1.0000 0.02500  0.47500  0.52500  Biso   1.000  Al
  Al343    1.0000 0.07500  0.42500  0.52500  Biso   1.000  Al
  Al344    1.0000 0.07500  0.47500  0.50000  Biso   1.000  Al
  Al345    1.0000 0.02500  0.42500  0.55000  Biso   1.000  Al
  Al346    1.0000 0.02500  0.47500  0.57500  Biso   1.000  Al
  Al347    1.0000 0.07500  0.42500  0.57500  Biso   1.000  Al
  Al348    1.0000 0.07500  0.47500  0.55000  Biso   1.000  Al
  Al349    1.0000 0.02500  0.42500  0.60000  Biso   1.000  Al
  Al350    1.0000 0.02500  0.47500  0.62500  Biso   1.000  Al
  Al351    1.0000 0.07500  0.42500  0.62500  Biso   1.000  Al
  Al352    1.0000 0.07500  0.47500  0.60000  Biso   1.000  Al
  Al353    1.0000 0.02500  0.42500  0.65000  Biso   1.000  Al
  Al354    1.0000 0.02500  0.47500  0.67500  Biso   1.000  Al
  Al355    1.0000 0.07500  0.42500  0.67500  Biso   1.000  Al
  Al356    1.0000 0.07500  0.47500  0.65000  Biso   1.000  Al
  Al357    1.0000 0.02500  0.42500  0.70000  Biso   1.000  Al
  Al358    1.0000 0.02500  0.47500  0.72500  Biso   1.000  Al
  Al359    1.0000 0.07500  0.42500  0.72500  Biso   1.000  Al
  Al360    1.0000 0.07500  0.47500  0.70000  Biso   1.000  Al
  Al361    1.0000 0.02500  0.42500  0.75000  Biso   1.000  Al
  Al362    1.0000 0.02500  0.47500  0.77500  Biso   1.000  Al
  Al363    1.0000 0.07500  0.42500  0.77500  Biso   1.000  Al
  Al364    1.0000 0.07500  0.47500  0.75000  Biso   1.000  Al
  Al365    1.0000 0.02500  0.42500  0.80000  Biso   1.000  Al
  Al366    1.0000 0.02500  0.47500  0.82500  Biso   1.000  Al
  Al367    1.0000 0.07500  0.42500  0.82500  Biso   1.000  Al
  Al368    1.0000 0.07500  0.47500  0.80000  Biso   1.000  Al
  Al369    1.0000 0.02500  0.42500  0.85000  Biso   1.000  Al
  Al370    1.0000 0.02500  0.47500  0.87500  Biso   1.000  Al
  Al371    1.0000 0.07500  0.42500  0.87500  Biso   1.000  Al
  Al372    1.0000 0.07500  0.47500  0.85000  Biso   1.000  Al
  Al373    1.0000 0.02500  0.42500  0.90000  Biso   1.000  Al
  Al374    1.0000 0.02500  0.47500  0.92500  Biso   1.000  Al
  Al375    1.0000 0.07500  0.42500  0.92500  Biso   1.000  Al
  Al376    1.0000 0.07500  0.47500  0.90000  Biso   1.000  Al
  Al377    1.0000 0.02500  0.42500  0.95000  Biso   1.000  Al
  Al378    1.0000 0.02500  0.47500  0.97500  Biso   1.000  Al
  Al379    1.0000 0.07500  0.42500  0.97500  Biso   1.000  Al
  Al380    1.0000 0.07500  0.47500  0.95000  Biso   1.000  Al
  Al381    1.0000 0.02500  0.52500  0.00000  Biso   1.000  Al
  Al382    1.0000 0.02500  0.57500  0.02500  Biso   1.000  Al
  Al383    1.0000 0.07500  0.52500  0.02500  Biso   1.000  Al
  Al384    1.0000 0.07500  0.57500  0.00000  Biso   1.000  Al
  Al385    1.0000 0.02500  0.52500  0.05000  Biso   1.000  Al
  Al386    1.0000 0.02500  0.57500  0.07500  Biso   1.000  Al
  Al387    1.0000 0.07500  0.52500  0.07500  Biso   1.000  Al
  Al388    1.0000 0.07500  0.57500  0.05000  Biso   1.000  Al
  Al389    1.0000 0.02500  0.52500  0.10000  Biso   1.000  Al
  Al390    1.0000 0.02500  0.57500  0.12500  Biso   1.000  Al
  Al391    1.0000 0.07500  0.52500  0.12500  Biso   1.000  Al
  Al392    1.0000 0.07500  0.57500  0.10000  Biso   1.000  Al
  Al393    1.0000 0.02500  0.52500  0.15000  Biso   1.000  Al
  Al394    1.0000 0.02500  0.57500  0.17500  Biso   1.000  Al
  Al395    1.0000 0.07500  0.52500  0.17500  Biso   1.000  Al
  Al396    1.0000 0.07500  0.57500  0.15000  Biso   1.000  Al
  Al397    1.0000 0.02500  0.52500  0.20000  Biso   1.000  Al
  Al398    1.0000 0.02500  0.57500  0.22500  Biso   1.000  Al
  Al399    1.0000 0.07500  0.52500  0.22500  Biso   1.000  Al
  Al400    1.0000 0.07500  0.57500  0.20000  Biso   1.000  Al
  Al401    1.0000 0.02500  0.52500  0.25000  Biso   1.000  Al
  Al402    1.0000 0.02500  0.57500  0.27500  Biso   1.000  Al
  Al403    1.0000 0.07500  0.52500  0.27500  Biso   1.000  Al
  Al404    1.0000 0.07500  0.57500  0.25000  Biso   1.000  Al
  Al405    1.0000 0.02500  0.52500  0.30000  Biso   1.000  Al
  Al406    1.0000 0.02500  0.57500  0.32500  Biso   1.000  Al
  Al407    1.0000 0.07500  0.52500  0.32500  Biso   1.000  Al
  Al408    1.0000 0.07500  0.57500  0.30000  Biso   1.000  Al
  Al409    1.0000 0.02500  0.52500  0.35000  Biso   1.000  Al
  Al410    1.0000 0.02500  0.57500  0.37500  Biso   1.000  Al
  Al411    1.0000 0.07500  0.52500  0.37500  Biso   1.000  Al
  Al412    1.0000 0.07500  0.57500  0.35000  Biso   1.000  Al
  Al413    1.0000 0.02500  0.52500  0.40000  Biso   1.000  Al
  Al414    1.0000 0.02500  0.57500  0.42500  Biso   1.000  Al
  Al415    1.0000 0.07500  0.52500  0.42500  Biso   1.000  Al
  Al416    1.0000 0.07500  0.57500  0.40000  Biso   1.000  Al
  Al417    1.0000 0.02500  0.52500  0.45000  Biso   1.000  Al
  Al418    1.0000 0.02500  0.57500  0.47500  Biso   1.000  Al
  Al419    1.0000 0.07500  0.52500  0.47500  Biso   1.000  Al
  Al420    1.0000 0.07500  0.57500  0.45000  Biso   1.000  Al
  Al421    1.0000 0.02500  0.52500  0.50000  Biso   1.000  Al
  Al422    1.0000 0.02500  0.57500  0.52500  Biso   1.000  Al
  Al423    1.0000 0.07500  0.52500  0.52500  Biso   1.000  Al
  Al424    1.0000 0.07500  0.57500  0.50000  Biso   1.000  Al
  Al425    1.0000 0.02500  0.52500  0.55000  Biso   1.000  Al
  Al426    1.0000 0.02500  0.57500  0.57500  Biso   1.000  Al
  Al427    1.0000 0.07500  0.52500  0.57500  Biso   1.000  Al
  Al428    1.0000 0.07500  0.57500  0.55000  Biso   1.000  Al
  Al429    1.0000 0.02500  0.52500  0.60000  Biso   1.000  Al
  Al430    1.0000 0.02500  0.57500  0.62500  Biso   1.000  Al
  Al431    1.0000 0.07500  0.52500  0.62500  Biso   1.000  Al
  Al432    1.0000 0.07500  0.57500  0.60000  Biso   1.000  Al
  Al433    1.0000 0.02500  0.52500  0.65000  Biso   1.000  Al
  Al434    1.0000 0.02500  0.57500  0.67500  Biso   1.000  Al
  Al435    1.0000 0.07500  0.52500  0.67500  Biso   1.000  Al
  Al436    1.0000 0.07500  0.57500  0.65000  Biso   1.000  Al
  Al437    1.0000 0.02500  0.52500  0.70000  Biso   1.000  Al
  Al438    1.0000 0.02500  0.57500  0.72500  Biso   1.000  Al
  Al439    1.0000 0.07500  0.52500  0.72500  Biso   1.000  Al
  Al440    1.0000 0.07500  0.57500  0.70000  Biso   1.000  Al
  Al441    1.0000 0.02500  0.52500  0.75000  Biso   1.000  Al
  Al442    1.0000 0.02500  0.57500  0.77500  Biso   1.000  Al
  Al443    1.0000 0.07500  0.52500  0.77500  Biso   1.000  Al
  Al444    1.0000 0.07500  0.57500  0.75000  Biso   1.000  Al
  Al445    1.0000 0.02500  0.52500  0.80000  Biso   1.000  Al
  Al446    1.0000 0.02500  0.57500  0.82500  Biso   1.000  Al
  Al447    1.0000 0.07500  0.52500  0.82500  Biso   1.000  Al
  Al448    1.0000 0.07500  0.57500  0.80000  Biso   1.000  Al
  Al449    1.0000 0.02500  0.52500  0.85000  Biso   1.000  Al
  Al450    1.0000 0.02500  0.57500  0.87500  Biso   1.000  Al
  Al451    1.0000 0.07500  0.52500  0.87500  Biso   1.000  Al
  Al452    1.0000 0.07500  0.57500  0.85000  Biso   1.000  Al
  Al453    1.0000 0.02500  0.52500  0.90000  Biso   1.000  Al
  Al454    1.0000 0.02500  0.57500  0.92500  Biso   1.000  Al
  Al455    1.0000 0.07500  0.52500  0.92500  Biso   1.000  Al
  Al456    1.0000 0.07500  0.57500  0.90000  Biso   1.000  Al
  Al457    1.0000 0.02500  0.52500  0.95000  Biso   1.000  Al
  Al458    1.0000 0.02500  0.57500  0.97500  Biso   1.000  Al
  Al459    1.0000 0.07500  0.52500  0.97500  Biso   1.000  Al
  Al460    1.0000 0.07500  0.57500  0.95000  Biso   1.000  Al
  Al461    1.0000 0.02500  0.62500  0.00000  Biso   1.000  Al
  Al462    1.0000 0.02500  0.67500  0.02500  Biso   1.000  Al
  Al463    1.0000 0.07500  0.62500  0.02500  Biso   1.000  Al
  Al464    1.0000 0.07500  0.67500  0.00000  Biso   1.000  Al
  Al465    1.0000 0.02500  0.62500  0.05000  Biso   1.000  Al
  Al466    1.0000 0.02500  0.67500  0.07500  Biso   1.000  Al
  Al467    1.0000 0.07500  0.62500  0.07500  Biso   1.000  Al
  Al468    1.0000 0.07500  0.67500  0.05000  Biso   1.000  Al
  Al469    1.0000 0.02500  0.62500  0.10000  Biso   1.000  Al
  Al470    1.0000 0.02500  0.67500  0.12500  Biso   1.000  Al
  Al471    1.0000 0.07500  0.62500  0.12500  Biso   1.000  Al
  Al472    1.0000 0.07500  0.67500  0.10000  Biso   1.000  Al
  Al473    1.0000 0.02500  0.62500  0.15000  Biso   1.000  Al
  Al474    1.0000 0.02500  0.67500  0.17500  Biso   1.000  Al
  Al475    1.0000 0.07500  0.62500  0.17500  Biso   1.000  Al
  Al476    1.0000 0.07500  0.67500  0.15000  Biso   1.000  Al
  Al477    1.0000 0.02500  0.62500  0.20000  Biso   1.000  Al
  Al478    1.0000 0.02500  0.67500  0.22500  Biso   1.000  Al
  Al479    1.0000 0.07500  0.62500  0.22500  Biso   1.000  Al
  Al480    1.0000 0.07500  0.67500  0.20000  Biso   1.000  Al
  Al481    1.0000 0.02500  0.62500  0.25000  Biso   1.000  Al
  Al482    1.0000 0.02500  0.67500  0.27500  Biso   1.000  Al
  Al483    1.0000 0.07500  0.62500  0.27500  Biso   1.000  Al
  Al484    1.0000 0.07500  0.67500  0.25000  Biso   1.000  Al
  Al485    1.0000 0.02500  0.62500  0.30000  Biso   1.000  Al
  Al486    1.0000 0.02500  0.67500  0.32500  Biso   1.000  Al
  Al487    1.0000 0.07500  0.62500  0.32500  Biso   1.000  Al
  Al488    1.0000 0.07500  0.67500  0.30000  Biso   1.000  Al
  Al489    1.0000 0.02500  0.62500  0.35000  Biso   1.000  Al
  Al490    1.0000 0.02500  0.67500  0.37500  Biso   1.000  Al
  Al491    1.0000 0.07500  0.62500  0.37500  Biso   1.000  Al
  Al492    1.0000 0.07500  0.67500  0.35000  Biso   1.000  Al
  Al493    1.0000 0.02500  0.62500  0.40000  Biso   1.000  Al
  Al494    1.0000 0.02500  0.67500  0.42500  Biso   1.000  Al
  Al495    1.0000 0.07500  0.62500  0.42500  Biso   1.000  Al
  Al496    1.0000 0.07500  0.67500  0.40000  Biso   1.000  Al
  Al497    1.0000 0.02500  0.62500  0.45000  Biso   1.000  Al
  Al498    1.0000 0.02500  0.67500  0.47500  Biso   1.000  Al
  Al499    1.0000 0.07500  0.62500  0.47500  Biso   1.000  Al
  Al500    1.0000 0.07500  0.67500  0.45000  Biso   1.000  Al
  Al501    1.0000 0.02500  0.62500  0.50000  Biso   1.000  Al
  Al502    1.0000 0.02500  0.67500  0.52500  Biso   1.000  Al
  Al503    1.0000 0.07500  0.62500  0.52500  Biso   1.000  Al
  Al504    1.0000 0.07500  0.67500  0.50000  Biso   1.000  Al
  Al505    1.0000 0.02500  0.62500  0.55000  Biso   1.000  Al
  Al506    1.0000 0.02500  0.67500  0.57500  Biso   1.000  Al
  Al507    1.0000 0.07500  0.62500  0.57500  Biso   1.000  Al
  Al508    1.0000 0.07500  0.67500  0.55000  Biso   1.000  Al
  Al509    1.0000 0.02500  0.62500  0.60000  Biso   1.000  Al
  Al510    1.0000 0.02500  0.67500  0.62500  Biso   1.000  Al
  Al511    1.0000 0.07500  0.62500  0.62500  Biso   1.000  Al
  Al512    1.0000 0.07500  0.67500  0.60000  Biso   1.000  Al
  Al513    1.0000 0.02500  0.62500  0.65000  Biso   1.000  Al
  Al514    1.0000 0.02500  0.67500  0.67500  Biso   1.000  Al
  Al515    1.0000 0.07500  0.62500  0.67500  Biso   1.000  Al
  Al516    1.0000 0.07500  0.67500  0.65000  Biso   1.000  Al
  Al517    1.0000 0.02500  0.62500  0.70000  Biso   1.000  Al
  Al518    1.0000 0.02500  0.67500  0.72500  Biso   1.000  Al
  Al519    1.0000 0.07500  0.62500  0.72500  Biso   1.000  Al
  Al520    1.0000 0.07500  0.67500  0.70000  Biso   1.000  Al
  Al521    1.0000 0.02500  0.62500  0.75000  Biso   1.000  Al
  Al522    1.0000 0.02500  0.67500  0.77500  Biso   1.000  Al
  Al523    1.0000 0.07500  0.62500  0.77500  Biso   1.000  Al
  Al524    1.0000 0.07500  0.67500  0.75000  Biso   1.000  Al
  Al525    1.0000 0.02500  0.62500  0.80000  Biso   1.000  Al
  Al526    1.0000 0.02500  0.67500  0.82500  Biso   1.000  Al
  Al527    1.0000 0.07500  0.62500  0.82500  Biso   1.000  Al
  Al528    1.0000 0.07500  0.67500  0.80000  Biso   1.000  Al
  Al529    1.0000 0.02500  0.62500  0.85000  Biso   1.000  Al
  Al530    1.0000 0.02500  0.67500  0.87500  Biso   1.000  Al
  Al531    1.0000 0.07500  0.62500  0.87500  Biso   1.000  Al
  Al532    1.0000 0.07500  0.67500  0.85000  Biso   1.000  Al
  Al533    1.0000 0.02500  0.62500  0.90000  Biso   1.000  Al
  Al534    1.0000 0.02500  0.67500  0.92500  Biso   1.000  Al
  Al535    1.0000 0.07500  0.62500  0.92500  Biso   1.000  Al
  Al536    1.0000 0.07500  0.67500  0.90000  Biso   1.000  Al
  Al537    1.0000 0.02500  0.62500  0.95000  Biso   1.000  Al
  Al538    1.0000 0.02500  0.67500  0.97500  Biso   1.000  Al
  Al539    1.0000 0.07500  0.62500  0.97500  Biso   1.000  Al
  Al540    1.0000 0.07500  0.67500  0.95000  Biso   1.000  Al
  Al541    1.0000 0.02500  0.72500  0.00000  Biso   1.000  Al
  Al542    1.0000 0.02500  0.77500  0.02500  Biso   1.000  Al
  Al543    1.0000 0.07500  0.72500  0.02500  Biso   1.000  Al
  Al544    1.0000 0.07500  0.77500  0.00000  Biso   1.000  Al
  Al545    1.0000 0.02500  0.72500  0.05000  Biso   1.000  Al
  Al546    1.0000 0.02500  0.77500  0.07500  Biso   1.000  Al
  Al547    1.0000 0.07500  0.72500  0.07500  Biso   1.000  Al
  Al548    1.0000 0.07500  0.77500  0.05000  Biso   1.000  Al
  Al549    1.0000 0.02500  0.72500  0.10000  Biso   1.000  Al
  Al550    1.0000 0.02500  0.77500  0.12500  Biso   1.000  Al
  Al551    1.0000 0.07500  0.72500  0.12500  Biso   1.000  Al
  Al552    1.0000 0.07500  0.77500  0.10000  Biso   1.000  Al
  Al553    1.0000 0.02500  0.72500  0.15000  Biso   1.000  Al
  Al554    1.0000 0.02500  0.77500  0.17500  Biso   1.000  Al
  Al555    1.0000 0.07500  0.72500  0.17500  Biso   1.000  Al
  Al556    1.0000 0.07500  0.77500  0.15000  Biso   1.000  Al
  Al557    1.0000 0.02500  0.72500  0.20000  Biso   1.000  Al
  Al558    1.0000 0.02500  0.77500  0.22500  Biso   1.000  Al
  Al559    1.0000 0.07500  0.72500  0.22500  Biso   1.000  Al
  Al560    1.0000 0.07500  0.77500  0.20000  Biso   1.000  Al
  Al561    1.0000 0.02500  0.72500  0.25000  Biso   1.000  Al
  Al562    1.0000 0.02500  0.77500  0.27500  Biso   1.000  Al
  Al563    1.0000 0.07500  0.72500  0.27500  Biso   1.000  Al
  Al564    1.0000 0.07500  0.77500  0.25000  Biso   1.000  Al
  Al565    1.0000 0.02500  0.72500  0.30000  Biso   1.000  Al
  Al566    1.0000 0.02500  0.77500  0.32500  Biso   1.000  Al
  Al567    1.0000 0.07500  0.72500  0.32500  Biso   1.000  Al
  Al568    1.0000 0.07500  0.77500  0.30000  Biso   1.000  Al
  Al569    1.0000 0.02500  0.72500  0.35000  Biso   1.000  Al
  Al570    1.0000 0.02500  0.77500  0.37500  Biso   1.000  Al
  Al571    1.0000 0.07500  0.72500  0.37500  Biso   1.000  Al
  Al572    1.0000 0.07500  0.77500  0.35000  Biso   1.000  Al
  Al573    1.0000 0.02500  0.72500  0.40000  Biso   1.000  Al
  Al574    1.0000 0.02500  0.77500  0.42500  Biso   1.000  Al
  Al575    1.0000 0.07500  0.72500  0.42500  Biso   1.000  Al
  Al576    1.0000 0.07500  0.77500  0.40000  Biso   1.000  Al
  Al577    1.0000 0.02500  0.72500  0.45000  Biso   1.000  Al
  Al578    1.0000 0.02500  0.77500  0.47500  Biso   1.000  Al
  Al579    1.0000 0.07500  0.72500  0.47500  Biso   1.000  Al
  Al580    1.0000 0.07500  0.77500  0.45000  Biso   1.000  Al
  Al581    1.0000 0.02500  0.72500  0.50000  Biso   1.000  Al
  Al582    1.0000 0.02500  0.77500  0.52500  Biso   1.000  Al
  Al583    1.0000 0.07500  0.72500  0.52500  Biso   1.000  Al
  Al584    1.0000 0.07500  0.77500  0.50000  Biso   1.000  Al
  Al585    1.0000 0.02500  0.72500  0.55000  Biso   1.000  Al
  Al586    1.0000 0.02500  0.77500  0.57500  Biso   1.000  Al
  Al587    1.0000 0.07500  0.72500  0.57500  Biso   1.000  Al
  Al588    1.0000 0.07500  0.77500  0.55000  Biso   1.000  Al
  Al589    1.0000 0.02500  0.72500  0.60000  Biso   1.000  Al
  Al590    1.0000 0.02500  0.77500  0.62500  Biso   1.000  Al
  Al591    1.0000 0.07500  0.72500  0.62500  Biso   1.000  Al
  Al592    1.0000 0.07500  0.77500  0.60000  Biso   1.000  Al
  Al593    1.0000 0.02500  0.72500  0.65000  Biso   1.000  Al
  Al594    1.0000 0.02500  0.77500  0.67500  Biso   1.000  Al
  Al595    1.0000 0.07500  0.72500  0.67500  Biso   1.000  Al
  Al596    1.0000 0.07500  0.77500  0.65000  Biso   1.000  Al
  Al597    1.0000 0.02500  0.72500  0.70000  Biso   1.000  Al
  Al598    1.0000 0.02500  0.77500  0.72500  Biso   1.000  Al
  Al599    1.0000 0.07500  0.72500  0.72500  Biso   1.000  Al
  Al600    1.0000 0.07500  0.77500  0.70000  Biso   1.000  Al
  Al601    1.0000 0.02500  0.72500  0.75000  Biso   1.000  Al
  Al602    1.0000 0.02500  0.77500  0.77500  Biso   1.000  Al
  Al603    1.0000 0.07500  0.72500  0.77500  Biso   1.000  Al
  Al604    1.0000 0.07500  0.77500  0.75000  Biso   1.000  Al
  Al605    1.0000 0.02500  0.72500  0.80000  Biso   1.000  Al
  Al606    1.0000 0.02500  0.77500  0.82500  Biso   1.000  Al
  Al607    1.0000 0.07500  0.72500  0.82500  Biso   1.000  Al
  Al608    1.0000 0.07500  0.77500  0.80000  Biso   1.000  Al
  Al609    1.0000 0.02500  0.72500  0.85000  Biso   1.000  Al
  Al610    1.0000 0.02500  0.77500  0.87500  Biso   1.000  Al
  Al611    1.0000 0.07500  0.72500  0.87500  Biso   1.000  Al
  Al612    1.0000 0.07500  0.77500  0.85000  Biso   1.000  Al
  Al613    1.0000 0.02500  0.72500  0.90000  Biso   1.000  Al
  Al614    1.0000 0.02500  0.77500  0.92500  Biso   1.000  Al
  Al615    1.0000 0.07500  0.72500  0.92500  Biso   1.000  Al
  Al616    1.0000 0.07500  0.77500  0.90000  Biso   1.000  Al
  Al617    1.0000 0.02500  0.72500  0.95000  Biso   1.000  Al
  Al618    1.0000 0.02500  0.77500  0.97500  Biso   1.000  Al
  Al619    1.0000 0.07500  0.72500  0.97500  Biso   1.000  Al
  Al620    1.0000 0.07500  0.77500  0.95000  Biso   1.000  Al
  Al621    1.0000 0.02500  0.82500  0.00000  Biso   1.000  Al
  Al622    1.0000 0.02500  0.87500  0.02500  Biso   1.000  Al
  Al623    1.0000 0.07500  0.82500  0.02500  Biso   1.000  Al
  Al624    1.0000 0.07500  0.87500  0.00000  Biso   1.000  Al
  Al625    1.0000 0.02500  0.82500  0.05000  Biso   1.000  Al
  Al626    1.0000 0.02500  0.87500  0.07500  Biso   1.000  Al
  Al627    1.0000 0.07500  0.82500  0.07500  Biso   1.000  Al
  Al628    1.0000 0.07500  0.87500  0.05000  Biso   1.000  Al
  Al629    1.0000 0.02500  0.82500  0.10000  Biso   1.000  Al
  Al630    1.0000 0.02500  0.87500  0.12500  Biso   1.000  Al
  Al631    1.0000 0.07500  0.82500  0.12500  Biso   1.000  Al
  Al632    1.0000 0.07500  0.87500  0.10000  Biso   1.000  Al
  Al633    1.0000 0.02500  0.82500  0.15000  Biso   1.000  Al
  Al634    1.0000 0.02500  0.87500  0.17500  Biso   1.000  Al
  Al635    1.0000 0.07500  0.82500  0.17500  Biso   1.000  Al
  Al636    1.0000 0.07500  0.87500  0.15000  Biso   1.000  Al
  Al637    1.0000 0.02500  0.82500  0.20000  Biso   1.000  Al
  Al638    1.0000 0.02500  0.87500  0.22500  Biso   1.000  Al
  Al639    1.0000 0.07500  0.82500  0.22500  Biso   1.000  Al
  Al640    1.0000 0.07500  0.87500  0.20000  Biso   1.000  Al
  Al641    1.0000 0.02500  0.82500  0.25000  Biso   1.000  Al
  Al642    1.0000 0.02500  0.87500  0.27500  Biso   1.000  Al
  Al643    1.0000 0.07500  0.82500  0.27500  Biso   1.000  Al
  Al644    1.0000 0.07500  0.87500  0.25000  Biso   1.000  Al
  Al645    1.0000 0.02500  0.82500  0.30000  Biso   1.000  Al
  Al646    1.0000 0.02500  0.87500  0.32500  Biso   1.000  Al
  Al647    1.0000 0.07500  0.82500  0.32500  Biso   1.000  Al
  Al648    1.0000 0.07500  0.87500  0.30000  Biso   1.000  Al
  Al649    1.0000 0.02500  0.82500  0.35000  Biso   1.000  Al
  Al650    1.0000 0.02500  0.87500  0.37500  Biso   1.000  Al
  Al651    1.0000 0.07500  0.82500  0.37500  Biso   1.000  Al
  Al652    1.0000 0.07500  0.87500  0.35000  Biso   1.000  Al
  Al653    1.0000 0.02500  0.82500  0.40000  Biso   1.000  Al
  Al654    1.0000 0.02500  0.87500  0.42500  Biso   1.000  Al
  Al655    1.0000 0.07500  0.82500  0.42500  Biso   1.000  Al
  Al656    1.0000 0.07500  0.87500  0.40000  Biso   1.000  Al
  Al657    1.0000 0.02500  0.82500  0.45000  Biso   1.000  Al
  Al658    1.0000 0.02500  0.87500  0.47500  Biso   1.000  Al
  Al659    1.0000 0.07500  0.82500  0.47500  Biso   1.000  Al
  Al660    1.0000 0.07500  0.87500  0.45000  Biso   1.000  Al
  Al661    1.0000 0.02500  0.82500  0.50000  Biso   1.000  Al
  Al662    1.0000 0.02500  0.87500  0.52500  Biso   1.000  Al
  Al663    1.0000 0.07500  0.82500  0.52500  Biso   1.000  Al
  Al664    1.0000 0.07500  0.87500  0.50000  Biso   1.000  Al
  Al665    1.0000 0.02500  0.82500  0.55000  Biso   1.000  Al
  Al666    1.0000 0.02500  0.87500  0.57500  Biso   1.000  Al
  Al667    1.0000 0.07500  0.82500  0.57500  Biso   1.000  Al
  Al668    1.0000 0.07500  0.87500  0.55000  Biso   1.000  Al
  Al669    1.0000 0.02500  0.82500  0.60000  Biso   1.000  Al
  Al670    1.0000 0.02500  0.87500  0.62500  Biso   1.000  Al
  Al671    1.0000 0.07500  0.82500  0.62500  Biso   1.000  Al
  Al672    1.0000 0.07500  0.87500  0.60000  Biso   1.000  Al
  Al673    1.0000 0.02500  0.82500  0.65000  Biso   1.000  Al
  Al674    1.0000 0.02500  0.87500  0.67500  Biso   1.000  Al
  Al675    1.0000 0.07500  0.82500  0.67500  Biso   1.000  Al
  Al676    1.0000 0.07500  0.87500  0.65000  Biso   1.000  Al
  Al677    1.0000 0.02500  0.82500  0.70000  Biso   1.000  Al
  Al678    1.0000 0.02500  0.87500  0.72500  Biso   1.000  Al
  Al679    1.0000 0.07500  0.82500  0.72500  Biso   1.000  Al
  Al680    1.0000 0.07500  0.87500  0.70000  Biso   1.000  Al
  Al681    1.0000 0.02500  0.82500  0.75000  Biso   1.000  Al
  Al682    1.0000 0.02500  0.87500  0.77500  Biso   1.000  Al
  Al683    1.0000 0.07500  0.82500  0.77500  Biso   1.000  Al
  Al684    1.0000 0.07500  0.87500  0.75000  Biso   1.000  Al
  Al685    1.0000 0.02500  0.82500  0.80000  Biso   1.000  Al
  Al686    1.0000 0.02500  0.87500  0.82500  Biso   1.000  Al
  Al687    1.0000 0.07500  0.82500  0.82500  Biso   1.000  Al
  Al688    1.0000 0.07500  0.87500  0.80000  Biso   1.000  Al
  Al689    1.0000 0.02500  0.82500  0.85000  Biso   1.000  Al
  Al690    1.0000 0.02500  0.87500  0.87500  Biso   1.000  Al
  Al691    1.0000 0.07500  0.82500  0.87500  Biso   1.000  Al
  Al692    1.0000 0.07500  0.87500  0.85000  Biso   1.000  Al
  Al693    1.0000 0.02500  0.82500  0.90000  Biso   1.000  Al
  Al694    1.0000 0.02500  0.87500  0.92500  Biso   1.000  Al
  Al695    1.0000 0.07500  0.82500  0.92500  Biso   1.000  Al
  Al696    1.0000 0.07500  0.87500  0.90000  Biso   1.000  Al
  Al697    1.0000 0.02500  0.82500  0.95000  Biso   1.000  Al
  Al698    1.0000 0.02500  0.87500  0.97500  Biso   1.000  Al
  Al699    1.0000 0.07500  0.82500  0.97500  Biso   1.000  Al
  Al700    1.0000 0.07500  0.87500  0.95000  Biso   1.000  Al
  Al701    1.0000 0.02500  0.92500  0.00000  Biso   1.000  Al
  Al702    1.0000 0.02500  0.97500  0.02500  Biso   1.000  Al
  Al703    1.0000 0.07500  0.92500  0.02500  Biso   1.000  Al
  Al704    1.0000 0.07500  0.97500  0.00000  Biso   1.000  Al
  Al705    1.0000 0.02500  0.92500  0.05000  Biso   1.000  Al
  Al706    1.0000 0.02500  0.97500  0.07500  Biso   1.000  Al
  Al707    1.0000 0.07500  0.92500  0.07500  Biso   1.000  Al
  Al708    1.0000 0.07500  0.97500  0.05000  Biso   1.000  Al
  Al709    1.0000 0.02500  0.92500  0.10000  Biso   1.000  Al
  Al710    1.0000 0.02500  0.97500  0.12500  Biso   1.000  Al
  Al711    1.0000 0.07500  0.92500  0.12500  Biso   1.000  Al
  Al712    1.0000 0.07500  0.97500  0.10000  Biso   1.000  Al
  Al713    1.0000 0.02500  0.92500  0.15000  Biso   1.000  Al
  Al714    1.0000 0.02500  0.97500  0.17500  Biso   1.000  Al
  Al715    1.0000 0.07500  0.92500  0.17500  Biso   1.000  Al
  Al716    1.0000 0.07500  0.97500  0.15000  Biso   1.000  Al
  Al717    1.0000 0.02500  0.92500  0.20000  Biso   1.000  Al
  Al718    1.0000 0.02500  0.97500  0.22500  Biso   1.000  Al
  Al719    1.0000 0.07500  0.92500  0.22500  Biso   1.000  Al
  Al720    1.0000 0.07500  0.97500  0.20000  Biso   1.000  Al
  Al721    1.0000 0.02500  0.92500  0.25000  Biso   1.000  Al
  Al722    1.0000 0.02500  0.97500  0.27500  Biso   1.000  Al
  Al723    1.0000 0.07500  0.92500  0.27500  Biso   1.000  Al
  Al724    1.0000 0.07500  0.97500  0.25000  Biso   1.000  Al
  Al725    1.0000 0.02500  0.92500  0.30000  Biso   1.000  Al
  Al726    1.0000 0.02500  0.97500  0.32500  Biso   1.000  Al
  Al727    1.0000 0.07500  0.92500  0.32500  Biso   1.000  Al
  Al728    1.0000 0.07500  0.97500  0.30000  Biso   1.000  Al
  Al729    1.0000 0.02500  0.92500  0.35000  Biso   1.000  Al
  Al730    1.0000 0.02500  0.97500  0.37500  Biso   1.000  Al
  Al731    1.0000 0.07500  0.92500  0.37500  Biso   1.000  Al
  Al732    1.0000 0.07500  0.97500  0.35000  Biso   1.000  Al
  Al733    1.0000 0.02500  0.92500  0.40000  Biso   1.000  Al
  Al734    1.0000 0.02500  0.97500  0.42500  Biso   1.000  Al
  Al735    1.0000 0.07500  0.92500  0.42500  Biso   1.000  Al
  Al736    1.0000 0.07500  0.97500  0.40000  Biso   1.000  Al
  Al737    1.0000 0.02500  0.92500  0.45000  Biso   1.000  Al
  Al738    1.0000 0.02500  0.97500  0.47500  Biso   1.000  Al
  Al739    1.0000 0.07500  0.92500  0.47500  Biso   1.000  Al
  Al740    1.0000 0.07500  0.97500  0.45000  Biso   1.000  Al
  Al741    1.0000 0.02500  0.92500  0.50000  Biso   1.000  Al
  Al742    1.0000 0.02500  0.97500  0.52500  Biso   1.000  Al
  Al743    1.0000 0.07500  0.92500  0.52500  Biso   1.000  Al
  Al744    1.0000 0.07500  0.97500  0.50000  Biso   1.000  Al
  Al745    1.0000 0.02500  0.92500  0.55000  Biso   1.000  Al
  Al746    1.0000 0.02500  0.97500  0.57500  Biso   1.000  Al
  Al747    1.0000 0.07500  0.92500  0.57500  Biso   1.000  Al
  Al748    1.0000 0.07500  0.97500  0.55000  Biso   1.000  Al
  Al749    1.0000 0.02500  0.92500  0.60000  Biso   1.000  Al
  Al750    1.0000 0.02500  0.97500  0.62500  Biso   1.000  Al
  Al751    1.0000 0.07500  0.92500  0.62500  Biso   1.000  Al
  Al752    1.0000 0.07500  0.97500  0.60000  Biso   1.000  Al
  Al753    1.0000 0.02500  0.92500  0.65000  Biso   1.000  Al
  Al754    1.0000 0.02500  0.97500  0.67500  Biso   1.000  Al
  Al755    1.0000 0.07500  0.92500  0.67500  Biso   1.000  Al
  Al756    1.0000 0.07500  0.97500  0.65000  Biso   1.000  Al
  Al757    1.0000 0.02500  0.92500  0.70000  Biso   1.000  Al
  Al758    1.0000 0.02500  0.97500  0.72500  Biso   1.000  Al
  Al759    1.0000 0.07500  0.92500  0.72500  Biso   1.000  Al
  Al760    1.0000 0.07500  0.97500  0.70000  Biso   1.000  Al
  Al761    1.0000 0.02500  0.92500  0.75000  Biso   1.000  Al
  Al762    1.0000 0.02500  0.97500  0.77500  Biso   1.000  Al
  Al763    1.0000 0.07500  0.92500  0.77500  Biso   1.000  Al
  Al764    1.0000 0.07500  0.97500  0.75000  Biso   1.000  Al
  Al765    1.0000 0.02500  0.92500  0.80000  Biso   1.000  Al
  Al766    1.0000 0.02500  0.97500  0.82500  Biso   1.000  Al
  Al767    1.0000 0.07500  0.92500  0.82500  Biso   1.000  Al
  Al768    1.0000 0.07500  0.97500  0.80000  Biso   1.000  Al
  Al769    1.0000 0.02500  0.92500  0.85000  Biso   1.000  Al
  Al770    1.0000 0.02500  0.97500  0.87500  Biso   1.000  Al
  Al771    1.0000 0.07500  0.92500  0.87500  Biso   1.000  Al
  Al772    1.0000 0.07500  0.97500  0.85000  Biso   1.000  Al
  Al773    1.0000 0.02500  0.92500  0.90000  Biso   1.000  Al
  Al774    1.0000 0.02500  0.97500  0.92500  Biso   1.000  Al
  Al775    1.0000 0.07500  0.92500  0.92500  Biso   1.000  Al
  Al776    1.0000 0.07500  0.97500  0.90000  Biso   1.000  Al
  Al777    1.0000 0.02500  0.92500  0.95000  Biso   1.000  Al
  Al778    1.0000 0.02500  0.97500  0.97500  Biso   1.000  Al
  Al779    1.0000 0.07500  0.92500  0.97500  Biso   1.000  Al
  Al780    1.0000 0.07500  0.97500  0.95000  Biso   1.000  Al
  Al781    1.0000 0.12500  0.02500  0.00000  Biso   1.000  Al
  Al782    1.0000 0.12500  0.07500  0.02500  Biso   1.000  Al
  Al783    1.0000 0.17500  0.02500  0.02500  Biso   1.000  Al
  Al784    1.0000 0.17500  0.07500  0.00000  Biso   1.000  Al
  Al785    1.0000 0.12500  0.02500  0.05000  Biso   1.000  Al
  Al786    1.0000 0.12500  0.07500  0.07500  Biso   1.000  Al
  Al787    1.0000 0.17500  0.02500  0.07500  Biso   1.000  Al
  Al788    1.0000 0.17500  0.07500  0.05000  Biso   1.000  Al
  Al789    1.0000 0.12500  0.02500  0.10000  Biso   1.000  Al
  Al790    1.0000 0.12500  0.07500  0.12500  Biso   1.000  Al
  Al791    1.0000 0.17500  0.02500  0.12500  Biso   1.000  Al
  Al792    1.0000 0.17500  0.07500  0.10000  Biso   1.000  Al
  Al793    1.0000 0.12500  0.02500  0.15000  Biso   1.000  Al
  Al794    1.0000 0.12500  0.07500  0.17500  Biso   1.000  Al
  Al795    1.0000 0.17500  0.02500  0.17500  Biso   1.000  Al
  Al796    1.0000 0.17500  0.07500  0.15000  Biso   1.000  Al
  Al797    1.0000 0.12500  0.02500  0.20000  Biso   1.000  Al
  Al798    1.0000 0.12500  0.07500  0.22500  Biso   1.000  Al
  Al799    1.0000 0.17500  0.02500  0.22500  Biso   1.000  Al
  Al800    1.0000 0.17500  0.07500  0.20000  Biso   1.000  Al
  Al801    1.0000 0.12500  0.02500  0.25000  Biso   1.000  Al
  Al802    1.0000 0.12500  0.07500  0.27500  Biso   1.000  Al
  Al803    1.0000 0.17500  0.02500  0.27500  Biso   1.000  Al
  Al804    1.0000 0.17500  0.07500  0.25000  Biso   1.000  Al
  Al805    1.0000 0.12500  0.02500  0.30000  Biso   1.000  Al
  Al806    1.0000 0.12500  0.07500  0.32500  Biso   1.000  Al
  Al807    1.0000 0.17500  0.02500  0.32500  Biso   1.000  Al
  Al808    1.0000 0.17500  0.07500  0.30000  Biso   1.000  Al
  Al809    1.0000 0.12500  0.02500  0.35000  Biso   1.000  Al
  Al810    1.0000 0.12500  0.07500  0.37500  Biso   1.000  Al
  Al811    1.0000 0.17500  0.02500  0.37500  Biso   1.000  Al
  Al812    1.0000 0.17500  0.07500  0.35000  Biso   1.000  Al
  Al813    1.0000 0.12500  0.02500  0.40000  Biso   1.000  Al
  Al814    1.0000 0.12500  0.07500  0.42500  Biso   1.000  Al
  Al815    1.0000 0.17500  0.02500  0.42500  Biso   1.000  Al
  Al816    1.0000 0.17500  0.07500  0.40000  Biso   1.000  Al
  Al817    1.0000 0.12500  0.02500  0.45000  Biso   1.000  Al
  Al818    1.0000 0.12500  0.07500  0.47500  Biso   1.000  Al
  Al819    1.0000 0.17500  0.02500  0.47500  Biso   1.000  Al
  Al820    1.0000 0.17500  0.07500  0.45000  Biso   1.000  Al
  Al821    1.0000 0.12500  0.02500  0.50000  Biso   1.000  Al
  Al822    1.0000 0.12500  0.07500  0.52500  Biso   1.000  Al
  Al823    1.0000 0.17500  0.02500  0.52500  Biso   1.000  Al
  Al824    1.0000 0.17500  0.07500  0.50000  Biso   1.000  Al
  Al825    1.0000 0.12500  0.02500  0.55000  Biso   1.000  Al
  Al826    1.0000 0.12500  0.07500  0.57500  Biso   1.000  Al
  Al827    1.0000 0.17500  0.02500  0.57500  Biso   1.000  Al
  Al828    1.0000 0.17500  0.07500  0.55000  Biso   1.000  Al
  Al829    1.0000 0.12500  0.02500  0.60000  Biso   1.000  Al
  Al830    1.0000 0.12500  0.07500  0.62500  Biso   1.000  Al
  Al831    1.0000 0.17500  0.02500  0.62500  Biso   1.000  Al
  Al832    1.0000 0.17500  0.07500  0.60000  Biso   1.000  Al
  Al833    1.0000 0.12500  0.02500  0.65000  Biso   1.000  Al
  Al834    1.0000 0.12500  0.07500  0.67500  Biso   1.000  Al
  Al835    1.0000 0.17500  0.02500  0.67500  Biso   1.000  Al
  Al836    1.0000 0.17500  0.07500  0.65000  Biso   1.000  Al
  Al837    1.0000 0.12500  0.02500  0.70000  Biso   1.000  Al
  Al838    1.0000 0.12500  0.07500  0.72500  Biso   1.000  Al
  Al839    1.0000 0.17500  0.02500  0.72500  Biso   1.000  Al
  Al840    1.0000 0.17500  0.07500  0.70000  Biso   1.000  Al
  Al841    1.0000 0.12500  0.02500  0.75000  Biso   1.000  Al
  Al842    1.0000 0.12500  0.07500  0.77500  Biso   1.000  Al
  Al843    1.0000 0.17500  0.02500  0.77500  Biso   1.000  Al
  Al844    1.0000 0.17500  0.07500  0.75000  Biso   1.000  Al
  Al845    1.0000 0.12500  0.02500  0.80000  Biso   1.000  Al
  Al846    1.0000 0.12500  0.07500  0.82500  Biso   1.000  Al
  Al847    1.0000 0.17500  0.02500  0.82500  Biso   1.000  Al
  Al848    1.0000 0.17500  0.07500  0.80000  Biso   1.000  Al
  Al849    1.0000 0.12500  0.02500  0.85000  Biso   1.000  Al
  Al850    1.0000 0.12500  0.07500  0.87500  Biso   1.000  Al
  Al851    1.0000 0.17500  0.02500  0.87500  Biso   1.000  Al
  Al852    1.0000 0.17500  0.07500  0.85000  Biso   1.000  Al
  Al853    1.0000 0.12500  0.02500  0.90000  Biso   1.000  Al
  Al854    1.0000 0.12500  0.07500  0.92500  Biso   1.000  Al
  Al855    1.0000 0.17500  0.02500  0.92500  Biso   1.000  Al
  Al856    1.0000 0.17500  0.07500  0.90000  Biso   1.000  Al
  Al857    1.0000 0.12500  0.02500  0.95000  Biso   1.000  Al
  Al858    1.0000 0.12500  0.07500  0.97500  Biso   1.000  Al
  Al859    1.0000 0.17500  0.02500  0.97500  Biso   1.000  Al
  Al860    1.0000 0.17500  0.07500  0.95000  Biso   1.000  Al
  Au21     1.0000 0.12500  0.12500  0.00000  Biso   1.000  Au
  Al861    1.0000 0.12500  0.17500  0.02500  Biso   1.000  Al
  Al862    1.0000 0.17500  0.12500  0.02500  Biso   1.000  Al
  Al863    1.0000 0.17500  0.17500  0.00000  Biso   1.000  Al
  Au22     1.0000 0.12500  0.12500  0.05000  Biso   1.000  Au
  Al864    1.0000 0.12500  0.17500  0.07500  Biso   1.000  Al
  Al865    1.0000 0.17500  0.12500  0.07500  Biso   1.000  Al
  Al866    1.0000 0.17500  0.17500  0.05000  Biso   1.000  Al
  Au23     1.0000 0.12500  0.12500  0.10000  Biso   1.000  Au
  Al867    1.0000 0.12500  0.17500  0.12500  Biso   1.000  Al
  Al868    1.0000 0.17500  0.12500  0.12500  Biso   1.000  Al
  Al869    1.0000 0.17500  0.17500  0.10000  Biso   1.000  Al
  Au24     1.0000 0.12500  0.12500  0.15000  Biso   1.000  Au
  Al870    1.0000 0.12500  0.17500  0.17500  Biso   1.000  Al
  Al871    1.0000 0.17500  0.12500  0.17500  Biso   1.000  Al
  Al872    1.0000 0.17500  0.17500  0.15000  Biso   1.000  Al
  Au25     1.0000 0.12500  0.12500  0.20000  Biso   1.000  Au
  Al873    1.0000 0.12500  0.17500  0.22500  Biso   1.000  Al
  Al874    1.0000 0.17500  0.12500  0.22500  Biso   1.000  Al
  Al875    1.0000 0.17500  0.17500  0.20000  Biso   1.000  Al
  Au26     1.0000 0.12500  0.12500  0.25000  Biso   1.000  Au
  Al876    1.0000 0.12500  0.17500  0.27500  Biso   1.000  Al
  Al877    1.0000 0.17500  0.12500  0.27500  Biso   1.000  Al
  Al878    1.0000 0.17500  0.17500  0.25000  Biso   1.000  Al
  Au27     1.0000 0.12500  0.12500  0.30000  Biso   1.000  Au
  Al879    1.0000 0.12500  0.17500  0.32500  Biso   1.000  Al
  Al880    1.0000 0.17500  0.12500  0.32500  Biso   1.000  Al
  Al881    1.0000 0.17500  0.17500  0.30000  Biso   1.000  Al
  Au28     1.0000 0.12500  0.12500  0.35000  Biso   1.000  Au
  Al882    1.0000 0.12500  0.17500  0.37500  Biso   1.000  Al
  Al883    1.0000 0.17500  0.12500  0.37500  Biso   1.000  Al
  Al884    1.0000 0.17500  0.17500  0.35000  Biso   1.000  Al
  Au29     1.0000 0.12500  0.12500  0.40000  Biso   1.000  Au
  Al885    1.0000 0.12500  0.17500  0.42500  Biso   1.000  Al
  Al886    1.0000 0.17500  0.12500  0.42500  Biso   1.000  Al
  Al887    1.0000 0.17500  0.17500  0.40000  Biso   1.000  Al
  Au30     1.0000 0.12500  0.12500  0.45000  Biso   1.000  Au
  Al888    1.0000 0.12500  0.17500  0.47500  Biso   1.000  Al
  Al889    1.0000 0.17500  0.12500  0.47500  Biso   1.000  Al
  Al890    1.0000 0.17500  0.17500  0.45000  Biso   1.000  Al
  Al891    1.0000 0.12500  0.12500  0.50000  Biso   1.000  Al
  Al892    1.0000 0.12500  0.17500  0.52500  Biso   1.000  Al
  Al893    1.0000 0.17500  0.12500  0.52500  Biso   1.000  Al
  Al894    1.0000 0.17500  0.17500  0.50000  Biso   1.000  Al
  Al895    1.0000 0.12500  0.12500  0.55000  Biso   1.000  Al
  Al896    1.0000 0.12500  0.17500  0.57500  Biso   1.000  Al
  Al897    1.0000 0.17500  0.12500  0.57500  Biso   1.000  Al
  Al898    1.0000 0.17500  0.17500  0.55000  Biso   1.000  Al
  Al899    1.0000 0.12500  0.12500  0.60000  Biso   1.000  Al
  Al900    1.0000 0.12500  0.17500  0.62500  Biso   1.000  Al
  Al901    1.0000 0.17500  0.12500  0.62500  Biso   1.000  Al
  Al902    1.0000 0.17500  0.17500  0.60000  Biso   1.000  Al
  Al903    1.0000 0.12500  0.12500  0.65000  Biso   1.000  Al
  Al904    1.0000 0.12500  0.17500  0.67500  Biso   1.000  Al
  Al905    1.0000 0.17500  0.12500  0.67500  Biso   1.000  Al
  Al906    1.0000 0.17500  0.17500  0.65000  Biso   1.000  Al
  Al907    1.0000 0.12500  0.12500  0.70000  Biso   1.000  Al
  Al908    1.0000 0.12500  0.17500  0.72500  Biso   1.000  Al
  Al909    1.0000 0.17500  0.12500  0.72500  Biso   1.000  Al
  Al910    1.0000 0.17500  0.17500  0.70000  Biso   1.000  Al
  Al911    1.0000 0.12500  0.12500  0.75000  Biso   1.000  Al
  Al912    1.0000 0.12500  0.17500  0.77500  Biso   1.000  Al
  Al913    1.0000 0.17500  0.12500  0.77500  Biso   1.000  Al
  Al914    1.0000 0.17500  0.17500  0.75000  Biso   1.000  Al
  Al915    1.0000 0.12500  0.12500  0.80000  Biso   1.000  Al
  Al916    1.0000 0.12500  0.17500  0.82500  Biso   1.000  Al
  Al917    1.0000 0.17500  0.12500  0.82500  Biso   1.000  Al
  Al918    1.0000 0.17500  0.17500  0.80000  Biso   1.000  Al
  Al919    1.0000 0.12500  0.12500  0.85000  Biso   1.000  Al
  Al920    1.0000 0.12500  0.17500  0.87500  Biso   1.000  Al
  Al921    1.0000 0.17500  0.12500  0.87500  Biso   1.000  Al
  Al922    1.0000 0.17500  0.17500  0.85000  Biso   1.000  Al
  Al923    1.0000 0.12500  0.12500  0.90000  Biso   1.000  Al
  Al924    1.0000 0.12500  0.17500  0.92500  Biso   1.000  Al
  Al925    1.0000 0.17500  0.12500  0.92500  Biso   1.000  Al
  Al926    1.0000 0.17500  0.17500  0.90000  Biso   1.000  Al
  Al927    1.0000 0.12500  0.12500  0.95000  Biso   1.000  Al
  Al928    1.0000 0.12500  0.17500  0.97500  Biso   1.000  Al
  Al929    1.0000 0.17500  0.12500  0.97500  Biso   1.000  Al
  Al930    1.0000 0.17500  0.17500  0.95000  Biso   1.000  Al
  Al931    1.0000 0.12500  0.22500  0.00000  Biso   1.000  Al
  Al932    1.0000 0.12500  0.27500  0.02500  Biso   1.000  Al
  Al933    1.0000 0.17500  0.22500  0.02500  Biso   1.000  Al
  Al934    1.0000 0.17500  0.27500  0.00000  Biso   1.000  Al
  Al935    1.0000 0.12500  0.22500  0.05000  Biso   1.000  Al
  Al936    1.0000 0.12500  0.27500  0.07500  Biso   1.000  Al
  Al937    1.0000 0.17500  0.22500  0.07500  Biso   1.000  Al
  Al938    1.0000 0.17500  0.27500  0.05000  Biso   1.000  Al
  Al939    1.0000 0.12500  0.22500  0.10000  Biso   1.000  Al
  Al940    1.0000 0.12500  0.27500  0.12500  Biso   1.000  Al
  Al941    1.0000 0.17500  0.22500  0.12500  Biso   1.000  Al
  Al942    1.0000 0.17500  0.27500  0.10000  Biso   1.000  Al
  Al943    1.0000 0.12500  0.22500  0.15000  Biso   1.000  Al
  Al944    1.0000 0.12500  0.27500  0.17500  Biso   1.000  Al
  Al945    1.0000 0.17500  0.22500  0.17500  Biso   1.000  Al
  Al946    1.0000 0.17500  0.27500  0.15000  Biso   1.000  Al
  Al947    1.0000 0.12500  0.22500  0.20000  Biso   1.000  Al
  Al948    1.0000 0.12500  0.27500  0.22500  Biso   1.000  Al
  Al949    1.0000 0.17500  0.22500  0.22500  Biso   1.000  Al
  Al950    1.0000 0.17500  0.27500  0.20000  Biso   1.000  Al
  Al951    1.0000 0.12500  0.22500  0.25000  Biso   1.000  Al
  Al952    1.0000 0.12500  0.27500  0.27500  Biso   1.000  Al
  Al953    1.0000 0.17500  0.22500  0.27500  Biso   1.000  Al
  Al954    1.0000 0.17500  0.27500  0.25000  Biso   1.000  Al
  Al955    1.0000 0.12500  0.22500  0.30000  Biso   1.000  Al
  Al956    1.0000 0.12500  0.27500  0.32500  Biso   1.000  Al
  Al957    1.0000 0.17500  0.22500  0.32500  Biso   1.000  Al
  Al958    1.0000 0.17500  0.27500  0.30000  Biso   1.000  Al
  Al959    1.0000 0.12500  0.22500  0.35000  Biso   1.000  Al
  Al960    1.0000 0.12500  0.27500  0.37500  Biso   1.000  Al
  Al961    1.0000 0.17500  0.22500  0.37500  Biso   1.000  Al
  Al962    1.0000 0.17500  0.27500  0.35000  Biso   1.000  Al
  Al963    1.0000 0.12500  0.22500  0.40000  Biso   1.000  Al
  Al964    1.0000 0.12500  0.27500  0.42500  Biso   1.000  Al
  Al965    1.0000 0.17500  0.22500  0.42500  Biso   1.000  Al
  Al966    1.0000 0.17500  0.27500  0.40000  Biso   1.000  Al
  Al967    1.0000 0.12500  0.22500  0.45000  Biso   1.000  Al
  Al968    1.0000 0.12500  0.27500  0.47500  Biso   1.000  Al
  Al969    1.0000 0.17500  0.22500  0.47500  Biso   1.000  Al
  Al970    1.0000 0.17500  0.27500  0.45000  Biso   1.000  Al
  Al971    1.0000 0.12500  0.22500  0.50000  Biso   1.000  Al
  Al972    1.0000 0.12500  0.27500  0.52500  Biso   1.000  Al
  Al973    1.0000 0.17500  0.22500  0.52500  Biso   1.000  Al
  Al974    1.0000 0.17500  0.27500  0.50000  Biso   1.000  Al
  Al975    1.0000 0.12500  0.22500  0.55000  Biso   1.000  Al
  Al976    1.0000 0.12500  0.27500  0.57500  Biso   1.000  Al
  Al977    1.0000 0.17500  0.22500  0.57500  Biso   1.000  Al
  Al978    1.0000 0.17500  0.27500  0.55000  Biso   1.000  Al
  Al979    1.0000 0.12500  0.22500  0.60000  Biso   1.000  Al
  Al980    1.0000 0.12500  0.27500  0.62500  Biso   1.000  Al
  Al981    1.0000 0.17500  0.22500  0.62500  Biso   1.000  Al
  Al982    1.0000 0.17500  0.27500  0.60000  Biso   1.000  Al
  Al983    1.0000 0.12500  0.22500  0.65000  Biso   1.000  Al
  Al984    1.0000 0.12500  0.27500  0.67500  Biso   1.000  Al
  Al985    1.0000 0.17500  0.22500  0.67500  Biso   1.000  Al
  Al986    1.0000 0.17500  0.27500  0.65000  Biso   1.000  Al
  Al987    1.0000 0.12500  0.22500  0.70000  Biso   1.000  Al
  Al988    1.0000 0.12500  0.27500  0.72500  Biso   1.000  Al
  Al989    1.0000 0.17500  0.22500  0.72500  Biso   1.000  Al
  Al990    1.0000 0.17500  0.27500  0.70000  Biso   1.000  Al
  Al991    1.0000 0.12500  0.22500  0.75000  Biso   1.000  Al
  Al992    1.0000 0.12500  0.27500  0.77500  Biso   1.000  Al
  Al993    1.0000 0.17500  0.22500  0.77500  Biso   1.000  Al
  Al994    1.0000 0.17500  0.27500  0.75000  Biso   1.000  Al
  Al995    1.0000 0.12500  0.22500  0.80000  Biso   1.000  Al
  Al996    1.0000 0.12500  0.27500  0.82500  Biso   1.000  Al
  Al997    1.0000 0.17500  0.22500  0.82500  Biso   1.000  Al
  Al998    1.0000 0.17500  0.27500  0.80000  Biso   1.000  Al
  Al999    1.0000 0.12500  0.22500  0.85000  Biso   1.000  Al
  Al1000   1.0000 0.12500  0.27500  0.87500  Biso   1.000  Al
  Al1001   1.0000 0.17500  0.22500  0.87500  Biso   1.000  Al
  Al1002   1.0000 0.17500  0.27500  0.85000  Biso   1.000  Al
  Al1003   1.0000 0.12500  0.22500  0.90000  Biso   1.000  Al
  Al1004   1.0000 0.12500  0.27500  0.92500  Biso   1.000  Al
  Al1005   1.0000 0.17500  0.22500  0.92500  Biso   1.000  Al
  Al1006   1.0000 0.17500  0.27500  0.90000  Biso   1.000  Al
  Al1007   1.0000 0.12500  0.22500  0.95000  Biso   1.000  Al
  Al1008   1.0000 0.12500  0.27500  0.97500  Biso   1.000  Al
  Al1009   1.0000 0.17500  0.22500  0.97500  Biso   1.000  Al
  Al1010   1.0000 0.17500  0.27500  0.95000  Biso   1.000  Al
  Al1011   1.0000 0.12500  0.32500  0.00000  Biso   1.000  Al
  Al1012   1.0000 0.12500  0.37500  0.02500  Biso   1.000  Al
  Al1013   1.0000 0.17500  0.32500  0.02500  Biso   1.000  Al
  Al1014   1.0000 0.17500  0.37500  0.00000  Biso   1.000  Al
  Al1015   1.0000 0.12500  0.32500  0.05000  Biso   1.000  Al
  Al1016   1.0000 0.12500  0.37500  0.07500  Biso   1.000  Al
  Al1017   1.0000 0.17500  0.32500  0.07500  Biso   1.000  Al
  Al1018   1.0000 0.17500  0.37500  0.05000  Biso   1.000  Al
  Al1019   1.0000 0.12500  0.32500  0.10000  Biso   1.000  Al
  Al1020   1.0000 0.12500  0.37500  0.12500  Biso   1.000  Al
  Al1021   1.0000 0.17500  0.32500  0.12500  Biso   1.000  Al
  Al1022   1.0000 0.17500  0.37500  0.10000  Biso   1.000  Al
  Al1023   1.0000 0.12500  0.32500  0.15000  Biso   1.000  Al
  Al1024   1.0000 0.12500  0.37500  0.17500  Biso   1.000  Al
  Al1025   1.0000 0.17500  0.32500  0.17500  Biso   1.000  Al
  Al1026   1.0000 0.17500  0.37500  0.15000  Biso   1.000  Al
  Al1027   1.0000 0.12500  0.32500  0.20000  Biso   1.000  Al
  Al1028   1.0000 0.12500  0.37500  0.22500  Biso   1.000  Al
  Al1029   1.0000 0.17500  0.32500  0.22500  Biso   1.000  Al
  Al1030   1.0000 0.17500  0.37500  0.20000  Biso   1.000  Al
  Al1031   1.0000 0.12500  0.32500  0.25000  Biso   1.000  Al
  Al1032   1.0000 0.12500  0.37500  0.27500  Biso   1.000  Al
  Al1033   1.0000 0.17500  0.32500  0.27500  Biso   1.000  Al
  Al1034   1.0000 0.17500  0.37500  0.25000  Biso   1.000  Al
  Al1035   1.0000 0.12500  0.32500  0.30000  Biso   1.000  Al
  Al1036   1.0000 0.12500  0.37500  0.32500  Biso   1.000  Al
  Al1037   1.0000 0.17500  0.32500  0.32500  Biso   1.000  Al
  Al1038   1.0000 0.17500  0.37500  0.30000  Biso   1.000  Al
  Al1039   1.0000 0.12500  0.32500  0.35000  Biso   1.000  Al
  Al1040   1.0000 0.12500  0.37500  0.37500  Biso   1.000  Al
  Al1041   1.0000 0.17500  0.32500  0.37500  Biso   1.000  Al
  Al1042   1.0000 0.17500  0.37500  0.35000  Biso   1.000  Al
  Al1043   1.0000 0.12500  0.32500  0.40000  Biso   1.000  Al
  Al1044   1.0000 0.12500  0.37500  0.42500  Biso   1.000  Al
  Al1045   1.0000 0.17500  0.32500  0.42500  Biso   1.000  Al
  Al1046   1.0000 0.17500  0.37500  0.40000  Biso   1.000  Al
  Al1047   1.0000 0.12500  0.32500  0.45000  Biso   1.000  Al
  Al1048   1.0000 0.12500  0.37500  0.47500  Biso   1.000  Al
  Al1049   1.0000 0.17500  0.32500  0.47500  Biso   1.000  Al
  Al1050   1.0000 0.17500  0.37500  0.45000  Biso   1.000  Al
  Al1051   1.0000 0.12500  0.32500  0.50000  Biso   1.000  Al
  Al1052   1.0000 0.12500  0.37500  0.52500  Biso   1.000  Al
  Al1053   1.0000 0.17500  0.32500  0.52500  Biso   1.000  Al
  Al1054   1.0000 0.17500  0.37500  0.50000  Biso   1.000  Al
  Al1055   1.0000 0.12500  0.32500  0.55000  Biso   1.000  Al
  Al1056   1.0000 0.12500  0.37500  0.57500  Biso   1.000  Al
  Al1057   1.0000 0.17500  0.32500  0.57500  Biso   1.000  Al
  Al1058   1.0000 0.17500  0.37500  0.55000  Biso   1.000  Al
  Al1059   1.0000 0.12500  0.32500  0.60000  Biso   1.000  Al
  Al1060   1.0000 0.12500  0.37500  0.62500  Biso   1.000  Al
  Al1061   1.0000 0.17500  0.32500  0.62500  Biso   1.000  Al
  Al1062   1.0000 0.17500  0.37500  0.60000  Biso   1.000  Al
  Al1063   1.0000 0.12500  0.32500  0.65000  Biso   1.000  Al
  Al1064   1.0000 0.12500  0.37500  0.67500  Biso   1.000  Al
  Al1065   1.0000 0.17500  0.32500  0.67500  Biso   1.000  Al
  Al1066   1.0000 0.17500  0.37500  0.65000  Biso   1.000  Al
  Al1067   1.0000 0.12500  0.32500  0.70000  Biso   1.000  Al
  Al1068   1.0000 0.12500  0.37500  0.72500  Biso   1.000  Al
  Al1069   1.0000 0.17500  0.32500  0.72500  Biso   1.000  Al
  Al1070   1.0000 0.17500  0.37500  0.70000  Biso   1.000  Al
  Al1071   1.0000 0.12500  0.32500  0.75000  Biso   1.000  Al
  Al1072   1.0000 0.12500  0.37500  0.77500  Biso   1.000  Al
  Al1073   1.0000 0.17500  0.32500  0.77500  Biso   1.000  Al
  Al1074   1.0000 0.17500  0.37500  0.75000  Biso   1.000  Al
  Al1075   1.0000 0.12500  0.32500  0.80000  Biso   1.000  Al
  Al1076   1.0000 0.12500  0.37500  0.82500  Biso   1.000  Al
  Al1077   1.0000 0.17500  0.32500  0.82500  Biso   1.000  Al
  Al1078   1.0000 0.17500  0.37500  0.80000  Biso   1.000  Al
  Al1079   1.0000 0.12500  0.32500  0.85000  Biso   1.000  Al
  Al1080   1.0000 0.12500  0.37500  0.87500  Biso   1.000  Al
  Al1081   1.0000 0.17500  0.32500  0.87500  Biso   1.000  Al
  Al1082   1.0000 0.17500  0.37500  0.85000  Biso   1.000  Al
  Al1083   1.0000 0.12500  0.32500  0.90000  Biso   1.000  Al
  Al1084   1.0000 0.12500  0.37500  0.92500  Biso   1.000  Al
  Al1085   1.0000 0.17500  0.32500  0.92500  Biso   1.000  Al
  Al1086   1.0000 0.17500  0.37500  0.90000  Biso   1.000  Al
  Al1087   1.0000 0.12500  0.32500  0.95000  Biso   1.000  Al
  Al1088   1.0000 0.12500  0.37500  0.97500  Biso   1.000  Al
  Al1089   1.0000 0.17500  0.32500  0.97500  Biso   1.000  Al
  Al1090   1.0000 0.17500  0.37500  0.95000  Biso   1.000  Al
  Al1091   1.0000 0.12500  0.42500  0.00000  Biso   1.000  Al
  Al1092   1.0000 0.12500  0.47500  0.02500  Biso   1.000  Al
  Al1093   1.0000 0.17500  0.42500  0.02500  Biso   1.000  Al
  Al1094   1.0000 0.17500  0.47500  0.00000  Biso   1.000  Al
  Al1095   1.0000 0.12500  0.42500  0.05000  Biso   1.000  Al
  Al1096   1.0000 0.12500  0.47500  0.07500  Biso   1.000  Al
  Al1097   1.0000 0.17500  0.42500  0.07500  Biso   1.000  Al
  Al1098   1.0000 0.17500  0.47500  0.05000  Biso   1.000  Al
  Al1099   1.0000 0.12500  0.42500  0.10000  Biso   1.000  Al
  Al1100   1.0000 0.12500  0.47500  0.12500  Biso   1.000  Al
  Al1101   1.0000 0.17500  0.42500  0.12500  Biso   1.000  Al
  Al1102   1.0000 0.17500  0.47500  0.10000  Biso   1.000  Al
  Al1103   1.0000 0.12500  0.42500  0.15000  Biso   1.000  Al
  Al1104   1.0000 0.12500  0.47500  0.17500  Biso   1.000  Al
  Al1105   1.0000 0.17500  0.42500  0.17500  Biso   1.000  Al
  Al1106   1.0000 0.17500  0.47500  0.15000  Biso   1.000  Al
  Al1107   1.0000 0.12500  0.42500  0.20000  Biso   1.000  Al
  Al1108   1.0000 0.12500  0.47500  0.22500  Biso   1.000  Al
  Al1109   1.0000 0.17500  0.42500  0.22500  Biso   1.000  Al
  Al1110   1.0000 0.17500  0.47500  0.20000  Biso   1.000  Al
  Al1111   1.0000 0.12500  0.42500  0.25000  Biso   1.000  Al
  Al1112   1.0000 0.12500  0.47500  0.27500  Biso   1.000  Al
  Al1113   1.0000 0.17500  0.42500  0.27500  Biso   1.000  Al
  Al1114   1.0000 0.17500  0.47500  0.25000  Biso   1.000  Al
  Al1115   1.0000 0.12500  0.42500  0.30000  Biso   1.000  Al
  Al1116   1.0000 0.12500  0.47500  0.32500  Biso   1.000  Al
  Al1117   1.0000 0.17500  0.42500  0.32500  Biso   1.000  Al
  Al1118   1.0000 0.17500  0.47500  0.30000  Biso   1.000  Al
  Al1119   1.0000 0.12500  0.42500  0.35000  Biso   1.000  Al
  Al1120   1.0000 0.12500  0.47500  0.37500  Biso   1.000  Al
  Al1121   1.0000 0.17500  0.42500  0.37500  Biso   1.000  Al
  Al1122   1.0000 0.17500  0.47500  0.35000  Biso   1.000  Al
  Al1123   1.0000 0.12500  0.42500  0.40000  Biso   1.000  Al
  Al1124   1.0000 0.12500  0.47500  0.42500  Biso   1.000  Al
  Al1125   1.0000 0.17500  0.42500  0.42500  Biso   1.000  Al
  Al1126   1.0000 0.17500  0.47500  0.40000  Biso   1.000  Al
  Al1127   1.0000 0.12500  0.42500  0.45000  Biso   1.000  Al
  Al1128   1.0000 0.12500  0.47500  0.47500  Biso   1.000  Al
  Al1129   1.0000 0.17500  0.42500  0.47500  Biso   1.000  Al
  Al1130   1.0000 0.17500  0.47500  0.45000  Biso   1.000  Al
  Al1131   1.0000 0.12500  0.42500  0.50000  Biso   1.000  Al
  Al1132   1.0000 0.12500  0.47500  0.52500  Biso   1.000  Al
  Al1133   1.0000 0.17500  0.42500  0.52500  Biso   1.000  Al
  Al1134   1.0000 0.17500  0.47500  0.50000  Biso   1.000  Al
  Al1135   1.0000 0.12500  0.42500  0.55000  Biso   1.000  Al
  Al1136   1.0000 0.12500  0.47500  0.57500  Biso   1.000  Al
  Al1137   1.0000 0.17500  0.42500  0.57500  Biso   1.000  Al
  Al1138   1.0000 0.17500  0.47500  0.55000  Biso   1.000  Al
  Al1139   1.0000 0.12500  0.42500  0.60000  Biso   1.000  Al
  Al1140   1.0000 0.12500  0.47500  0.62500  Biso   1.000  Al
  Al1141   1.0000 0.17500  0.42500  0.62500  Biso   1.000  Al
  Al1142   1.0000 0.17500  0.47500  0.60000  Biso   1.000  Al
  Al1143   1.0000 0.12500  0.42500  0.65000  Biso   1.000  Al
  Al1144   1.0000 0.12500  0.47500  0.67500  Biso   1.000  Al
  Al1145   1.0000 0.17500  0.42500  0.67500  Biso   1.000  Al
  Al1146   1.0000 0.17500  0.47500  0.65000  Biso   1.000  Al
  Al1147   1.0000 0.12500  0.42500  0.70000  Biso   1.000  Al
  Al1148   1.0000 0.12500  0.47500  0.72500  Biso   1.000  Al
  Al1149   1.0000 0.17500  0.42500  0.72500  Biso   1.000  Al
  Al1150   1.0000 0.17500  0.47500  0.70000  Biso   1.000  Al
  Al1151   1.0000 0.12500  0.42500  0.75000  Biso   1.000  Al
  Al1152   1.0000 0.12500  0.47500  0.77500  Biso   1.000  Al
  Al1153   1.0000 0.17500  0.42500  0.77500  Biso   1.000  Al
  Al1154   1.0000 0.17500  0.47500  0.75000  Biso   1.000  Al
  Al1155   1.0000 0.12500  0.42500  0.80000  Biso   1.000  Al
  Al1156   1.0000 0.12500  0.47500  0.82500  Biso   1.000  Al
  Al1157   1.0000 0.17500  0.42500  0.82500  Biso   1.000  Al
  Al1158   1.0000 0.17500  0.47500  0.80000  Biso   1.000  Al
  Al1159   1.0000 0.12500  0.42500  0.85000  Biso   1.000  Al
  Al1160   1.0000 0.12500  0.47500  0.87500  Biso   1.000  Al
  Al1161   1.0000 0.17500  0.42500  0.87500  Biso   1.000  Al
  Al1162   1.0000 0.17500  0.47500  0.85000  Biso   1.000  Al
  Al1163   1.0000 0.12500  0.42500  0.90000  Biso   1.000  Al
  Al1164   1.0000 0.12500  0.47500  0.92500  Biso   1.000  Al
  Al1165   1.0000 0.17500  0.42500  0.92500  Biso   1.000  Al
  Al1166   1.0000 0.17500  0.47500  0.90000  Biso   1.000  Al
  Al1167   1.0000 0.12500  0.42500  0.95000  Biso   1.000  Al
  Al1168   1.0000 0.12500  0.47500  0.97500  Biso   1.000  Al
  Al1169   1.0000 0.17500  0.42500  0.97500  Biso   1.000  Al
  Al1170   1.0000 0.17500  0.47500  0.95000  Biso   1.000  Al
  Al1171   1.0000 0.12500  0.52500  0.00000  Biso   1.000  Al
  Al1172   1.0000 0.12500  0.57500  0.02500  Biso   1.000  Al
  Al1173   1.0000 0.17500  0.52500  0.02500  Biso   1.000  Al
  Al1174   1.0000 0.17500  0.57500  0.00000  Biso   1.000  Al
  Al1175   1.0000 0.12500  0.52500  0.05000  Biso   1.000  Al
  Al1176   1.0000 0.12500  0.57500  0.07500  Biso   1.000  Al
  Al1177   1.0000 0.17500  0.52500  0.07500  Biso   1.000  Al
  Al1178   1.0000 0.17500  0.57500  0.05000  Biso   1.000  Al
  Al1179   1.0000 0.12500  0.52500  0.10000  Biso   1.000  Al
  Al1180   1.0000 0.12500  0.57500  0.12500  Biso   1.000  Al
  Al1181   1.0000 0.17500  0.52500  0.12500  Biso   1.000  Al
  Al1182   1.0000 0.17500  0.57500  0.10000  Biso   1.000  Al
  Al1183   1.0000 0.12500  0.52500  0.15000  Biso   1.000  Al
  Al1184   1.0000 0.12500  0.57500  0.17500  Biso   1.000  Al
  Al1185   1.0000 0.17500  0.52500  0.17500  Biso   1.000  Al
  Al1186   1.0000 0.17500  0.57500  0.15000  Biso   1.000  Al
  Al1187   1.0000 0.12500  0.52500  0.20000  Biso   1.000  Al
  Al1188   1.0000 0.12500  0.57500  0.22500  Biso   1.000  Al
  Al1189   1.0000 0.17500  0.52500  0.22500  Biso   1.000  Al
  Al1190   1.0000 0.17500  0.57500  0.20000  Biso   1.000  Al
  Al1191   1.0000 0.12500  0.52500  0.25000  Biso   1.000  Al
  Al1192   1.0000 0.12500  0.57500  0.27500  Biso   1.000  Al
  Al1193   1.0000 0.17500  0.52500  0.27500  Biso   1.000  Al
  Al1194   1.0000 0.17500  0.57500  0.25000  Biso   1.000  Al
  Al1195   1.0000 0.12500  0.52500  0.30000  Biso   1.000  Al
  Al1196   1.0000 0.12500  0.57500  0.32500  Biso   1.000  Al
  Al1197   1.0000 0.17500  0.52500  0.32500  Biso   1.000  Al
  Al1198   1.0000 0.17500  0.57500  0.30000  Biso   1.000  Al
  Al1199   1.0000 0.12500  0.52500  0.35000  Biso   1.000  Al
  Al1200   1.0000 0.12500  0.57500  0.37500  Biso   1.000  Al
  Al1201   1.0000 0.17500  0.52500  0.37500  Biso   1.000  Al
  Al1202   1.0000 0.17500  0.57500  0.35000  Biso   1.000  Al
  Al1203   1.0000 0.12500  0.52500  0.40000  Biso   1.000  Al
  Al1204   1.0000 0.12500  0.57500  0.42500  Biso   1.000  Al
  Al1205   1.0000 0.17500  0.52500  0.42500  Biso   1.000  Al
  Al1206   1.0000 0.17500  0.57500  0.40000  Biso   1.000  Al
  Al1207   1.0000 0.12500  0.52500  0.45000  Biso   1.000  Al
  Al1208   1.0000 0.12500  0.57500  0.47500  Biso   1.000  Al
  Al1209   1.0000 0.17500  0.52500  0.47500  Biso   1.000  Al
  Al1210   1.0000 0.17500  0.57500  0.45000  Biso   1.000  Al
  Al1211   1.0000 0.12500  0.52500  0.50000  Biso   1.000  Al
  Al1212   1.0000 0.12500  0.57500  0.52500  Biso   1.000  Al
  Al1213   1.0000 0.17500  0.52500  0.52500  Biso   1.000  Al
  Al1214   1.0000 0.17500  0.57500  0.50000  Biso   1.000  Al
  Al1215   1.0000 0.12500  0.52500  0.55000  Biso   1.000  Al
  Al1216   1.0000 0.12500  0.57500  0.57500  Biso   1.000  Al
  Al1217   1.0000 0.17500  0.52500  0.57500  Biso   1.000  Al
  Al1218   1.0000 0.17500  0.57500  0.55000  Biso   1.000  Al
  Al1219   1.0000 0.12500  0.52500  0.60000  Biso   1.000  Al
  Al1220   1.0000 0.12500  0.57500  0.62500  Biso   1.000  Al
  Al1221   1.0000 0.17500  0.52500  0.62500  Biso   1.000  Al
  Al1222   1.0000 0.17500  0.57500  0.60000  Biso   1.000  Al
  Al1223   1.0000 0.12500  0.52500  0.65000  Biso   1.000  Al
  Al1224   1.0000 0.12500  0.57500  0.67500  Biso   1.000  Al
  Al1225   1.0000 0.17500  0.52500  0.67500  Biso   1.000  Al
  Al1226   1.0000 0.17500  0.57500  0.65000  Biso   1.000  Al
  Al1227   1.0000 0.12500  0.52500  0.70000  Biso   1.000  Al
  Al1228   1.0000 0.12500  0.57500  0.72500  Biso   1.000  Al
  Al1229   1.0000 0.17500  0.52500  0.72500  Biso   1.000  Al
  Al1230   1.0000 0.17500  0.57500  0.70000  Biso   1.000  Al
  Al1231   1.0000 0.12500  0.52500  0.75000  Biso   1.000  Al
  Al1232   1.0000 0.12500  0.57500  0.77500  Biso   1.000  Al
  Al1233   1.0000 0.17500  0.52500  0.77500  Biso   1.000  Al
  Al1234   1.0000 0.17500  0.57500  0.75000  Biso   1.000  Al
  Al1235   1.0000 0.12500  0.52500  0.80000  Biso   1.000  Al
  Al1236   1.0000 0.12500  0.57500  0.82500  Biso   1.000  Al
  Al1237   1.0000 0.17500  0.52500  0.82500  Biso   1.000  Al
  Al1238   1.0000 0.17500  0.57500  0.80000  Biso   1.000  Al
  Al1239   1.0000 0.12500  0.52500  0.85000  Biso   1.000  Al
  Al1240   1.0000 0.12500  0.57500  0.87500  Biso   1.000  Al
  Al1241   1.0000 0.17500  0.52500  0.87500  Biso   1.000  Al
  Al1242   1.0000 0.17500  0.57500  0.85000  Biso   1.000  Al
  Al1243   1.0000 0.12500  0.52500  0.90000  Biso   1.000  Al
  Al1244   1.0000 0.12500  0.57500  0.92500  Biso   1.000  Al
  Al1245   1.0000 0.17500  0.52500  0.92500  Biso   1.000  Al
  Al1246   1.0000 0.17500  0.57500  0.90000  Biso   1.000  Al
  Al1247   1.0000 0.12500  0.52500  0.95000  Biso   1.000  Al
  Al1248   1.0000 0.12500  0.57500  0.97500  Biso   1.000  Al
  Al1249   1.0000 0.17500  0.52500  0.97500  Biso   1.000  Al
  Al1250   1.0000 0.17500  0.57500  0.95000  Biso   1.000  Al
  Al1251   1.0000 0.12500  0.62500  0.00000  Biso   1.000  Al
  Al1252   1.0000 0.12500  0.67500  0.02500  Biso   1.000  Al
  Al1253   1.0000 0.17500  0.62500  0.02500  Biso   1.000  Al
  Al1254   1.0000 0.17500  0.67500  0.00000  Biso   1.000  Al
  Al1255   1.0000 0.12500  0.62500  0.05000  Biso   1.000  Al
  Al1256   1.0000 0.12500  0.67500  0.07500  Biso   1.000  Al
  Al1257   1.0000 0.17500  0.62500  0.07500  Biso   1.000  Al
  Al1258   1.0000 0.17500  0.67500  0.05000  Biso   1.000  Al
  Al1259   1.0000 0.12500  0.62500  0.10000  Biso   1.000  Al
  Al1260   1.0000 0.12500  0.67500  0.12500  Biso   1.000  Al
  Al1261   1.0000 0.17500  0.62500  0.12500  Biso   1.000  Al
  Al1262   1.0000 0.17500  0.67500  0.10000  Biso   1.000  Al
  Al1263   1.0000 0.12500  0.62500  0.15000  Biso   1.000  Al
  Al1264   1.0000 0.12500  0.67500  0.17500  Biso   1.000  Al
  Al1265   1.0000 0.17500  0.62500  0.17500  Biso   1.000  Al
  Al1266   1.0000 0.17500  0.67500  0.15000  Biso   1.000  Al
  Al1267   1.0000 0.12500  0.62500  0.20000  Biso   1.000  Al
  Al1268   1.0000 0.12500  0.67500  0.22500  Biso   1.000  Al
  Al1269   1.0000 0.17500  0.62500  0.22500  Biso   1.000  Al
  Al1270   1.0000 0.17500  0.67500  0.20000  Biso   1.000  Al
  Al1271   1.0000 0.12500  0.62500  0.25000  Biso   1.000  Al
  Al1272   1.0000 0.12500  0.67500  0.27500  Biso   1.000  Al
  Al1273   1.0000 0.17500  0.62500  0.27500  Biso   1.000  Al
  Al1274   1.0000 0.17500  0.67500  0.25000  Biso   1.000  Al
  Al1275   1.0000 0.12500  0.62500  0.30000  Biso   1.000  Al
  Al1276   1.0000 0.12500  0.67500  0.32500  Biso   1.000  Al
  Al1277   1.0000 0.17500  0.62500  0.32500  Biso   1.000  Al
  Al1278   1.0000 0.17500  0.67500  0.30000  Biso   1.000  Al
  Al1279   1.0000 0.12500  0.62500  0.35000  Biso   1.000  Al
  Al1280   1.0000 0.12500  0.67500  0.37500  Biso   1.000  Al
  Al1281   1.0000 0.17500  0.62500  0.37500  Biso   1.000  Al
  Al1282   1.0000 0.17500  0.67500  0.35000  Biso   1.000  Al
  Al1283   1.0000 0.12500  0.62500  0.40000  Biso   1.000  Al
  Al1284   1.0000 0.12500  0.67500  0.42500  Biso   1.000  Al
  Al1285   1.0000 0.17500  0.62500  0.42500  Biso   1.000  Al
  Al1286   1.0000 0.17500  0.67500  0.40000  Biso   1.000  Al
  Al1287   1.0000 0.12500  0.62500  0.45000  Biso   1.000  Al
  Al1288   1.0000 0.12500  0.67500  0.47500  Biso   1.000  Al
  Al1289   1.0000 0.17500  0.62500  0.47500  Biso   1.000  Al
  Al1290   1.0000 0.17500  0.67500  0.45000  Biso   1.000  Al
  Al1291   1.0000 0.12500  0.62500  0.50000  Biso   1.000  Al
  Al1292   1.0000 0.12500  0.67500  0.52500  Biso   1.000  Al
  Al1293   1.0000 0.17500  0.62500  0.52500  Biso   1.000  Al
  Al1294   1.0000 0.17500  0.67500  0.50000  Biso   1.000  Al
  Al1295   1.0000 0.12500  0.62500  0.55000  Biso   1.000  Al
  Al1296   1.0000 0.12500  0.67500  0.57500  Biso   1.000  Al
  Al1297   1.0000 0.17500  0.62500  0.57500  Biso   1.000  Al
  Al1298   1.0000 0.17500  0.67500  0.55000  Biso   1.000  Al
  Al1299   1.0000 0.12500  0.62500  0.60000  Biso   1.000  Al
  Al1300   1.0000 0.12500  0.67500  0.62500  Biso   1.000  Al
  Al1301   1.0000 0.17500  0.62500  0.62500  Biso   1.000  Al
  Al1302   1.0000 0.17500  0.67500  0.60000  Biso   1.000  Al
  Al1303   1.0000 0.12500  0.62500  0.65000  Biso   1.000  Al
  Al1304   1.0000 0.12500  0.67500  0.67500  Biso   1.000  Al
  Al1305   1.0000 0.17500  0.62500  0.67500  Biso   1.000  Al
  Al1306   1.0000 0.17500  0.67500  0.65000  Biso   1.000  Al
  Al1307   1.0000 0.12500  0.62500  0.70000  Biso   1.000  Al
  Al1308   1.0000 0.12500  0.67500  0.72500  Biso   1.000  Al
  Al1309   1.0000 0.17500  0.62500  0.72500  Biso   1.000  Al
  Al1310   1.0000 0.17500  0.67500  0.70000  Biso   1.000  Al
  Al1311   1.0000 0.12500  0.62500  0.75000  Biso   1.000  Al
  Al1312   1.0000 0.12500  0.67500  0.77500  Biso   1.000  Al
  Al1313   1.0000 0.17500  0.62500  0.77500  Biso   1.000  Al
  Al1314   1.0000 0.17500  0.67500  0.75000  Biso   1.000  Al
  Al1315   1.0000 0.12500  0.62500  0.80000  Biso   1.000  Al
  Al1316   1.0000 0.12500  0.67500  0.82500  Biso   1.000  Al
  Al1317   1.0000 0.17500  0.62500  0.82500  Biso   1.000  Al
  Al1318   1.0000 0.17500  0.67500  0.80000  Biso   1.000  Al
  Al1319   1.0000 0.12500  0.62500  0.85000  Biso   1.000  Al
  Al1320   1.0000 0.12500  0.67500  0.87500  Biso   1.000  Al
  Al1321   1.0000 0.17500  0.62500  0.87500  Biso   1.000  Al
  Al1322   1.0000 0.17500  0.67500  0.85000  Biso   1.000  Al
  Al1323   1.0000 0.12500  0.62500  0.90000  Biso   1.000  Al
  Al1324   1.0000 0.12500  0.67500  0.92500  Biso   1.000  Al
  Al1325   1.0000 0.17500  0.62500  0.92500  Biso   1.000  Al
  Al1326   1.0000 0.17500  0.67500  0.90000  Biso   1.000  Al
  Al1327   1.0000 0.12500  0.62500  0.95000  Biso   1.000  Al
  Al1328   1.0000 0.12500  0.67500  0.97500  Biso   1.000  Al
  Al1329   1.0000 0.17500  0.62500  0.97500  Biso   1.000  Al
  Al1330   1.0000 0.17500  0.67500  0.95000  Biso   1.000  Al
  Al1331   1.0000 0.12500  0.72500  0.00000  Biso   1.000  Al
  Al1332   1.0000 0.12500  0.77500  0.02500  Biso   1.000  Al
  Al1333   1.0000 0.17500  0.72500  0.02500  Biso   1.000  Al
  Al1334   1.0000 0.17500  0.77500  0.00000  Biso   1.000  Al
  Al1335   1.0000 0.12500  0.72500  0.05000  Biso   1.000  Al
  Al1336   1.0000 0.12500  0.77500  0.07500  Biso   1.000  Al
  Al1337   1.0000 0.17500  0.72500  0.07500  Biso   1.000  Al
  Al1338   1.0000 0.17500  0.77500  0.05000  Biso   1.000  Al
  Al1339   1.0000 0.12500  0.72500  0.10000  Biso   1.000  Al
  Al1340   1.0000 0.12500  0.77500  0.12500  Biso   1.000  Al
  Al1341   1.0000 0.17500  0.72500  0.12500  Biso   1.000  Al
  Al1342   1.0000 0.17500  0.77500  0.10000  Biso   1.000  Al
  Al1343   1.0000 0.12500  0.72500  0.15000  Biso   1.000  Al
  Al1344   1.0000 0.12500  0.77500  0.17500  Biso   1.000  Al
  Al1345   1.0000 0.17500  0.72500  0.17500  Biso   1.000  Al
  Al1346   1.0000 0.17500  0.77500  0.15000  Biso   1.000  Al
  Al1347   1.0000 0.12500  0.72500  0.20000  Biso   1.000  Al
  Al1348   1.0000 0.12500  0.77500  0.22500  Biso   1.000  Al
  Al1349   1.0000 0.17500  0.72500  0.22500  Biso   1.000  Al
  Al1350   1.0000 0.17500  0.77500  0.20000  Biso   1.000  Al
  Al1351   1.0000 0.12500  0.72500  0.25000  Biso   1.000  Al
  Al1352   1.0000 0.12500  0.77500  0.27500  Biso   1.000  Al
  Al1353   1.0000 0.17500  0.72500  0.27500  Biso   1.000  Al
  Al1354   1.0000 0.17500  0.77500  0.25000  Biso   1.000  Al
  Al1355   1.0000 0.12500  0.72500  0.30000  Biso   1.000  Al
  Al1356   1.0000 0.12500  0.77500  0.32500  Biso   1.000  Al
  Al1357   1.0000 0.17500  0.72500  0.32500  Biso   1.000  Al
  Al1358   1.0000 0.17500  0.77500  0.30000  Biso   1.000  Al
  Al1359   1.0000 0.12500  0.72500  0.35000  Biso   1.000  Al
  Al1360   1.0000 0.12500  0.77500  0.37500  Biso   1.000  Al
  Al1361   1.0000 0.17500  0.72500  0.37500  Biso   1.000  Al
  Al1362   1.0000 0.17500  0.77500  0.35000  Biso   1.000  Al
  Al1363   1.0000 0.12500  0.72500  0.40000  Biso   1.000  Al
  Al1364   1.0000 0.12500  0.77500  0.42500  Biso   1.000  Al
  Al1365   1.0000 0.17500  0.72500  0.42500  Biso   1.000  Al
  Al1366   1.0000 0.17500  0.77500  0.40000  Biso   1.000  Al
  Al1367   1.0000 0.12500  0.72500  0.45000  Biso   1.000  Al
  Al1368   1.0000 0.12500  0.77500  0.47500  Biso   1.000  Al
  Al1369   1.0000 0.17500  0.72500  0.47500  Biso   1.000  Al
  Al1370   1.0000 0.17500  0.77500  0.45000  Biso   1.000  Al
  Al1371   1.0000 0.12500  0.72500  0.50000  Biso   1.000  Al
  Al1372   1.0000 0.12500  0.77500  0.52500  Biso   1.000  Al
  Al1373   1.0000 0.17500  0.72500  0.52500  Biso   1.000  Al
  Al1374   1.0000 0.17500  0.77500  0.50000  Biso   1.000  Al
  Al1375   1.0000 0.12500  0.72500  0.55000  Biso   1.000  Al
  Al1376   1.0000 0.12500  0.77500  0.57500  Biso   1.000  Al
  Al1377   1.0000 0.17500  0.72500  0.57500  Biso   1.000  Al
  Al1378   1.0000 0.17500  0.77500  0.55000  Biso   1.000  Al
  Al1379   1.0000 0.12500  0.72500  0.60000  Biso   1.000  Al
  Al1380   1.0000 0.12500  0.77500  0.62500  Biso   1.000  Al
  Al1381   1.0000 0.17500  0.72500  0.62500  Biso   1.000  Al
  Al1382   1.0000 0.17500  0.77500  0.60000  Biso   1.000  Al
  Al1383   1.0000 0.12500  0.72500  0.65000  Biso   1.000  Al
  Al1384   1.0000 0.12500  0.77500  0.67500  Biso   1.000  Al
  Al1385   1.0000 0.17500  0.72500  0.67500  Biso   1.000  Al
  Al1386   1.0000 0.17500  0.77500  0.65000  Biso   1.000  Al
  Al1387   1.0000 0.12500  0.72500  0.70000  Biso   1.000  Al
  Al1388   1.0000 0.12500  0.77500  0.72500  Biso   1.000  Al
  Al1389   1.0000 0.17500  0.72500  0.72500  Biso   1.000  Al
  Al1390   1.0000 0.17500  0.77500  0.70000  Biso   1.000  Al
  Al1391   1.0000 0.12500  0.72500  0.75000  Biso   1.000  Al
  Al1392   1.0000 0.12500  0.77500  0.77500  Biso   1.000  Al
  Al1393   1.0000 0.17500  0.72500  0.77500  Biso   1.000  Al
  Al1394   1.0000 0.17500  0.77500  0.75000  Biso   1.000  Al
  Al1395   1.0000 0.12500  0.72500  0.80000  Biso   1.000  Al
  Al1396   1.0000 0.12500  0.77500  0.82500  Biso   1.000  Al
  Al1397   1.0000 0.17500  0.72500  0.82500  Biso   1.000  Al
  Al1398   1.0000 0.17500  0.77500  0.80000  Biso   1.000  Al
  Al1399   1.0000 0.12500  0.72500  0.85000  Biso   1.000  Al
  Al1400   1.0000 0.12500  0.77500  0.87500  Biso   1.000  Al
  Al1401   1.0000 0.17500  0.72500  0.87500  Biso   1.000  Al
  Al1402   1.0000 0.17500  0.77500  0.85000  Biso   1.000  Al
  Al1403   1.0000 0.12500  0.72500  0.90000  Biso   1.000  Al
  Al1404   1.0000 0.12500  0.77500  0.92500  Biso   1.000  Al
  Al1405   1.0000 0.17500  0.72500  0.92500  Biso   1.000  Al
  Al1406   1.0000 0.17500  0.77500  0.90000  Biso   1.000  Al
  Al1407   1.0000 0.12500  0.72500  0.95000  Biso   1.000  Al
  Al1408   1.0000 0.12500  0.77500  0.97500  Biso   1.000  Al
  Al1409   1.0000 0.17500  0.72500  0.97500  Biso   1.000  Al
  Al1410   1.0000 0.17500  0.77500  0.95000  Biso   1.000  Al
  Al1411   1.0000 0.12500  0.82500  0.00000  Biso   1.000  Al
  Al1412   1.0000 0.12500  0.87500  0.02500  Biso   1.000  Al
  Al1413   1.0000 0.17500  0.82500  0.02500  Biso   1.000  Al
  Al1414   1.0000 0.17500  0.87500  0.00000  Biso   1.000  Al
  Al1415   1.0000 0.12500  0.82500  0.05000  Biso   1.000  Al
  Al1416   1.0000 0.12500  0.87500  0.07500  Biso   1.000  Al
  Al1417   1.0000 0.17500  0.82500  0.07500  Biso   1.000  Al
  Al1418   1.0000 0.17500  0.87500  0.05000  Biso   1.000  Al
  Al1419   1.0000 0.12500  0.82500  0.10000  Biso   1.000  Al
  Al1420   1.0000 0.12500  0.87500  0.12500  Biso   1.000  Al
  Al1421   1.0000 0.17500  0.82500  0.12500  Biso   1.000  Al
  Al1422   1.0000 0.17500  0.87500  0.10000  Biso   1.000  Al
  Al1423   1.0000 0.12500  0.82500  0.15000  Biso   1.000  Al
  Al1424   1.0000 0.12500  0.87500  0.17500  Biso   1.000  Al
  Al1425   1.0000 0.17500  0.82500  0.17500  Biso   1.000  Al
  Al1426   1.0000 0.17500  0.87500  0.15000  Biso   1.000  Al
  Al1427   1.0000 0.12500  0.82500  0.20000  Biso   1.000  Al
  Al1428   1.0000 0.12500  0.87500  0.22500  Biso   1.000  Al
  Al1429   1.0000 0.17500  0.82500  0.22500  Biso   1.000  Al
  Al1430   1.0000 0.17500  0.87500  0.20000  Biso   1.000  Al
  Al1431   1.0000 0.12500  0.82500  0.25000  Biso   1.000  Al
  Al1432   1.0000 0.12500  0.87500  0.27500  Biso   1.000  Al
  Al1433   1.0000 0.17500  0.82500  0.27500  Biso   1.000  Al
  Al1434   1.0000 0.17500  0.87500  0.25000  Biso   1.000  Al
  Al1435   1.0000 0.12500  0.82500  0.30000  Biso   1.000  Al
  Al1436   1.0000 0.12500  0.87500  0.32500  Biso   1.000  Al
  Al1437   1.0000 0.17500  0.82500  0.32500  Biso   1.000  Al
  Al1438   1.0000 0.17500  0.87500  0.30000  Biso   1.000  Al
  Al1439   1.0000 0.12500  0.82500  0.35000  Biso   1.000  Al
  Al1440   1.0000 0.12500  0.87500  0.37500  Biso   1.000  Al
  Al1441   1.0000 0.17500  0.82500  0.37500  Biso   1.000  Al
  Al1442   1.0000 0.17500  0.87500  0.35000  Biso   1.000  Al
  Al1443   1.0000 0.12500  0.82500  0.40000  Biso   1.000  Al
  Al1444   1.0000 0.12500  0.87500  0.42500  Biso   1.000  Al
  Al1445   1.0000 0.17500  0.82500  0.42500  Biso   1.000  Al
  Al1446   1.0000 0.17500  0.87500  0.40000  Biso   1.000  Al
  Al1447   1.0000 0.12500  0.82500  0.45000  Biso   1.000  Al
  Al1448   1.0000 0.12500  0.87500  0.47500  Biso   1.000  Al
  Al1449   1.0000 0.17500  0.82500  0.47500  Biso   1.000  Al
  Al1450   1.0000 0.17500  0.87500  0.45000  Biso   1.000  Al
  Al1451   1.0000 0.12500  0.82500  0.50000  Biso   1.000  Al
  Al1452   1.0000 0.12500  0.87500  0.52500  Biso   1.000  Al
  Al1453   1.0000 0.17500  0.82500  0.52500  Biso   1.000  Al
  Al1454   1.0000 0.17500  0.87500  0.50000  Biso   1.000  Al
  Al1455   1.0000 0.12500  0.82500  0.55000  Biso   1.000  Al
  Al1456   1.0000 0.12500  0.87500  0.57500  Biso   1.000  Al
  Al1457   1.0000 0.17500  0.82500  0.57500  Biso   1.000  Al
  Al1458   1.0000 0.17500  0.87500  0.55000  Biso   1.000  Al
  Al1459   1.0000 0.12500  0.82500  0.60000  Biso   1.000  Al
  Al1460   1.0000 0.12500  0.87500  0.62500  Biso   1.000  Al
  Al1461   1.0000 0.17500  0.82500  0.62500  Biso   1.000  Al
  Al1462   1.0000 0.17500  0.87500  0.60000  Biso   1.000  Al
  Al1463   1.0000 0.12500  0.82500  0.65000  Biso   1.000  Al
  Al1464   1.0000 0.12500  0.87500  0.67500  Biso   1.000  Al
  Al1465   1.0000 0.17500  0.82500  0.67500  Biso   1.000  Al
  Al1466   1.0000 0.17500  0.87500  0.65000  Biso   1.000  Al
  Al1467   1.0000 0.12500  0.82500  0.70000  Biso   1.000  Al
  Al1468   1.0000 0.12500  0.87500  0.72500  Biso   1.000  Al
  Al1469   1.0000 0.17500  0.82500  0.72500  Biso   1.000  Al
  Al1470   1.0000 0.17500  0.87500  0.70000  Biso   1.000  Al
  Al1471   1.0000 0.12500  0.82500  0.75000  Biso   1.000  Al
  Al1472   1.0000 0.12500  0.87500  0.77500  Biso   1.000  Al
  Al1473   1.0000 0.17500  0.82500  0.77500  Biso   1.000  Al
  Al1474   1.0000 0.17500  0.87500  0.75000  Biso   1.000  Al
  Al1475   1.0000 0.12500  0.82500  0.80000  Biso   1.000  Al
  Al1476   1.0000 0.12500  0.87500  0.82500  Biso   1.000  Al
  Al1477   1.0000 0.17500  0.82500  0.82500  Biso   1.000  Al
  Al1478   1.0000 0.17500  0.87500  0.80000  Biso   1.000  Al
  Al1479   1.0000 0.12500  0.82500  0.85000  Biso   1.000  Al
  Al1480   1.0000 0.12500  0.87500  0.87500  Biso   1.000  Al
  Al1481   1.0000 0.17500  0.82500  0.87500  Biso   1.000  Al
  Al1482   1.0000 0.17500  0.87500  0.85000  Biso   1.000  Al
  Al1483   1.0000 0.12500  0.82500  0.90000  Biso   1.000  Al
  Al1484   1.0000 0.12500  0.87500  0.92500  Biso   1.000  Al
  Al1485   1.0000 0.17500  0.82500  0.92500  Biso   1.000  Al
  Al1486   1.0000 0.17500  0.87500  0.90000  Biso   1.000  Al
  Al1487   1.0000 0.12500  0.82500  0.95000  Biso   1.000  Al
  Al1488   1.0000 0.12500  0.87500  0.97500  Biso   1.000  Al
  Al1489   1.0000 0.17500  0.82500  0.97500  Biso   1.000  Al
  Al1490   1.0000 0.17500  0.87500  0.95000  Biso   1.000  Al
  Al1491   1.0000 0.12500  0.92500  0.00000  Biso   1.000  Al
  Al1492   1.0000 0.12500  0.97500  0.02500  Biso   1.000  Al
  Al1493   1.0000 0.17500  0.92500  0.02500  Biso   1.000  Al
  Al1494   1.0000 0.17500  0.97500  0.00000  Biso   1.000  Al
  Al1495   1.0000 0.12500  0.92500  0.05000  Biso   1.000  Al
  Al1496   1.0000 0.12500  0.97500  0.07500  Biso   1.000  Al
  Al1497   1.0000 0.17500  0.92500  0.07500  Biso   1.000  Al
  Al1498   1.0000 0.17500  0.97500  0.05000  Biso   1.000  Al
  Al1499   1.0000 0.12500  0.92500  0.10000  Biso   1.000  Al
  Al1500   1.0000 0.12500  0.97500  0.12500  Biso   1.000  Al
  Al1501   1.0000 0.17500  0.92500  0.12500  Biso   1.000  Al
  Al1502   1.0000 0.17500  0.97500  0.10000  Biso   1.000  Al
  Al1503   1.0000 0.12500  0.92500  0.15000  Biso   1.000  Al
  Al1504   1.0000 0.12500  0.97500  0.17500  Biso   1.000  Al
  Al1505   1.0000 0.17500  0.92500  0.17500  Biso   1.000  Al
  Al1506   1.0000 0.17500  0.97500  0.15000  Biso   1.000  Al
  Al1507   1.0000 0.12500  0.92500  0.20000  Biso   1.000  Al
  Al1508   1.0000 0.12500  0.97500  0.22500  Biso   1.000  Al
  Al1509   1.0000 0.17500  0.92500  0.22500  Biso   1.000  Al
  Al1510   1.0000 0.17500  0.97500  0.20000  Biso   1.000  Al
  Al1511   1.0000 0.12500  0.92500  0.25000  Biso   1.000  Al
  Al1512   1.0000 0.12500  0.97500  0.27500  Biso   1.000  Al
  Al1513   1.0000 0.17500  0.92500  0.27500  Biso   1.000  Al
  Al1514   1.0000 0.17500  0.97500  0.25000  Biso   1.000  Al
  Al1515   1.0000 0.12500  0.92500  0.30000  Biso   1.000  Al
  Al1516   1.0000 0.12500  0.97500  0.32500  Biso   1.000  Al
  Al1517   1.0000 0.17500  0.92500  0.32500  Biso   1.000  Al
  Al1518   1.0000 0.17500  0.97500  0.30000  Biso   1.000  Al
  Al1519   1.0000 0.12500  0.92500  0.35000  Biso   1.000  Al
  Al1520   1.0000 0.12500  0.97500  0.37500  Biso   1.000  Al
  Al1521   1.0000 0.17500  0.92500  0.37500  Biso   1.000  Al
  Al1522   1.0000 0.17500  0.97500  0.35000  Biso   1.000  Al
  Al1523   1.0000 0.12500  0.92500  0.40000  Biso   1.000  Al
  Al1524   1.0000 0.12500  0.97500  0.42500  Biso   1.000  Al
  Al1525   1.0000 0.17500  0.92500  0.42500  Biso   1.000  Al
  Al1526   1.0000 0.17500  0.97500  0.40000  Biso   1.000  Al
  Al1527   1.0000 0.12500  0.92500  0.45000  Biso   1.000  Al
  Al1528   1.0000 0.12500  0.97500  0.47500  Biso   1.000  Al
  Al1529   1.0000 0.17500  0.92500  0.47500  Biso   1.000  Al
  Al1530   1.0000 0.17500  0.97500  0.45000  Biso   1.000  Al
  Al1531   1.0000 0.12500  0.92500  0.50000  Biso   1.000  Al
  Al1532   1.0000 0.12500  0.97500  0.52500  Biso   1.000  Al
  Al1533   1.0000 0.17500  0.92500  0.52500  Biso   1.000  Al
  Al1534   1.0000 0.17500  0.97500  0.50000  Biso   1.000  Al
  Al1535   1.0000 0.12500  0.92500  0.55000  Biso   1.000  Al
  Al1536   1.0000 0.12500  0.97500  0.57500  Biso   1.000  Al
  Al1537   1.0000 0.17500  0.92500  0.57500  Biso   1.000  Al
  Al1538   1.0000 0.17500  0.97500  0.55000  Biso   1.000  Al
  Al1539   1.0000 0.12500  0.92500  0.60000  Biso   1.000  Al
  Al1540   1.0000 0.12500  0.97500  0.62500  Biso   1.000  Al
  Al1541   1.0000 0.17500  0.92500  0.62500  Biso   1.000  Al
  Al1542   1.0000 0.17500  0.97500  0.60000  Biso   1.000  Al
  Al1543   1.0000 0.12500  0.92500  0.65000  Biso   1.000  Al
  Al1544   1.0000 0.12500  0.97500  0.67500  Biso   1.000  Al
  Al1545   1.0000 0.17500  0.92500  0.67500  Biso   1.000  Al
  Al1546   1.0000 0.17500  0.97500  0.65000  Biso   1.000  Al
  Al1547   1.0000 0.12500  0.92500  0.70000  Biso   1.000  Al
  Al1548   1.0000 0.12500  0.97500  0.72500  Biso   1.000  Al
  Al1549   1.0000 0.17500  0.92500  0.72500  Biso   1.000  Al
  Al1550   1.0000 0.17500  0.97500  0.70000  Biso   1.000  Al
  Al1551   1.0000 0.12500  0.92500  0.75000  Biso   1.000  Al
  Al1552   1.0000 0.12500  0.97500  0.77500  Biso   1.000  Al
  Al1553   1.0000 0.17500  0.92500  0.77500  Biso   1.000  Al
  Al1554   1.0000 0.17500  0.97500  0.75000  Biso   1.000  Al
  Al1555   1.0000 0.12500  0.92500  0.80000  Biso   1.000  Al
  Al1556   1.0000 0.12500  0.97500  0.82500  Biso   1.000  Al
  Al1557   1.0000 0.17500  0.92500  0.82500  Biso   1.000  Al
  Al1558   1.0000 0.17500  0.97500  0.80000  Biso   1.000  Al
  Al1559   1.0000 0.12500  0.92500  0.85000  Biso   1.000  Al
  Al1560   1.0000 0.12500  0.97500  0.87500  Biso   1.000  Al
  Al1561   1.0000 0.17500  0.92500  0.87500  Biso   1.000  Al
  Al1562   1.0000 0.17500  0.97500  0.85000  Biso   1.000  Al
  Al1563   1.0000 0.12500  0.92500  0.90000  Biso   1.000  Al
  Al1564   1.0000 0.12500  0.97500  0.92500  Biso   1.000  Al
  Al1565   1.0000 0.17500  0.92500  0.92500  Biso   1.000  Al
  Al1566   1.0000 0.17500  0.97500  0.90000  Biso   1.000  Al
  Al1567   1.0000 0.12500  0.92500  0.95000  Biso   1.000  Al
  Al1568   1.0000 0.12500  0.97500  0.97500  Biso   1.000  Al
  Al1569   1.0000 0.17500  0.92500  0.97500  Biso   1.000  Al
  Al1570   1.0000 0.17500  0.97500  0.95000  Biso   1.000  Al
  Al1571   1.0000 0.22500  0.02500  0.00000  Biso   1.000  Al
  Al1572   1.0000 0.22500  0.07500  0.02500  Biso   1.000  Al
  Al1573   1.0000 0.27500  0.02500  0.02500  Biso   1.000  Al
  Al1574   1.0000 0.27500  0.07500  0.00000  Biso   1.000  Al
  Al1575   1.0000 0.22500  0.02500  0.05000  Biso   1.000  Al
  Al1576   1.0000 0.22500  0.07500  0.07500  Biso   1.000  Al
  Al1577   1.0000 0.27500  0.02500  0.07500  Biso   1.000  Al
  Al1578   1.0000 0.27500  0.07500  0.05000  Biso   1.000  Al
  Al1579   1.0000 0.22500  0.02500  0.10000  Biso   1.000  Al
  Al1580   1.0000 0.22500  0.07500  0.12500  Biso   1.000  Al
  Al1581   1.0000 0.27500  0.02500  0.12500  Biso   1.000  Al
  Al1582   1.0000 0.27500  0.07500  0.10000  Biso   1.000  Al
  Al1583   1.0000 0.22500  0.02500  0.15000  Biso   1.000  Al
  Al1584   1.0000 0.22500  0.07500  0.17500  Biso   1.000  Al
  Al1585   1.0000 0.27500  0.02500  0.17500  Biso   1.000  Al
  Al1586   1.0000 0.27500  0.07500  0.15000  Biso   1.000  Al
  Al1587   1.0000 0.22500  0.02500  0.20000  Biso   1.000  Al
  Al1588   1.0000 0.22500  0.07500  0.22500  Biso   1.000  Al
  Al1589   1.0000 0.27500  0.02500  0.22500  Biso   1.000  Al
  Al1590   1.0000 0.27500  0.07500  0.20000  Biso   1.000  Al
  Al1591   1.0000 0.22500  0.02500  0.25000  Biso   1.000  Al
  Al1592   1.0000 0.22500  0.07500  0.27500  Biso   1.000  Al
  Al1593   1.0000 0.27500  0.02500  0.27500  Biso   1.000  Al
  Al1594   1.0000 0.27500  0.07500  0.25000  Biso   1.000  Al
  Al1595   1.0000 0.22500  0.02500  0.30000  Biso   1.000  Al
  Al1596   1.0000 0.22500  0.07500  0.32500  Biso   1.000  Al
  Al1597   1.0000 0.27500  0.02500  0.32500  Biso   1.000  Al
  Al1598   1.0000 0.27500  0.07500  0.30000  Biso   1.000  Al
  Al1599   1.0000 0.22500  0.02500  0.35000  Biso   1.000  Al
  Al1600   1.0000 0.22500  0.07500  0.37500  Biso   1.000  Al
  Al1601   1.0000 0.27500  0.02500  0.37500  Biso   1.000  Al
  Al1602   1.0000 0.27500  0.07500  0.35000  Biso   1.000  Al
  Al1603   1.0000 0.22500  0.02500  0.40000  Biso   1.000  Al
  Al1604   1.0000 0.22500  0.07500  0.42500  Biso   1.000  Al
  Al1605   1.0000 0.27500  0.02500  0.42500  Biso   1.000  Al
  Al1606   1.0000 0.27500  0.07500  0.40000  Biso   1.000  Al
  Al1607   1.0000 0.22500  0.02500  0.45000  Biso   1.000  Al
  Al1608   1.0000 0.22500  0.07500  0.47500  Biso   1.000  Al
  Al1609   1.0000 0.27500  0.02500  0.47500  Biso   1.000  Al
  Al1610   1.0000 0.27500  0.07500  0.45000  Biso   1.000  Al
  Al1611   1.0000 0.22500  0.02500  0.50000  Biso   1.000  Al
  Al1612   1.0000 0.22500  0.07500  0.52500  Biso   1.000  Al
  Al1613   1.0000 0.27500  0.02500  0.52500  Biso   1.000  Al
  Al1614   1.0000 0.27500  0.07500  0.50000  Biso   1.000  Al
  Al1615   1.0000 0.22500  0.02500  0.55000  Biso   1.000  Al
  Al1616   1.0000 0.22500  0.07500  0.57500  Biso   1.000  Al
  Al1617   1.0000 0.27500  0.02500  0.57500  Biso   1.000  Al
  Al1618   1.0000 0.27500  0.07500  0.55000  Biso   1.000  Al
  Al1619   1.0000 0.22500  0.02500  0.60000  Biso   1.000  Al
  Al1620   1.0000 0.22500  0.07500  0.62500  Biso   1.000  Al
  Al1621   1.0000 0.27500  0.02500  0.62500  Biso   1.000  Al
  Al1622   1.0000 0.27500  0.07500  0.60000  Biso   1.000  Al
  Al1623   1.0000 0.22500  0.02500  0.65000  Biso   1.000  Al
  Al1624   1.0000 0.22500  0.07500  0.67500  Biso   1.000  Al
  Al1625   1.0000 0.27500  0.02500  0.67500  Biso   1.000  Al
  Al1626   1.0000 0.27500  0.07500  0.65000  Biso   1.000  Al
  Al1627   1.0000 0.22500  0.02500  0.70000  Biso   1.000  Al
  Al1628   1.0000 0.22500  0.07500  0.72500  Biso   1.000  Al
  Al1629   1.0000 0.27500  0.02500  0.72500  Biso   1.000  Al
  Al1630   1.0000 0.27500  0.07500  0.70000  Biso   1.000  Al
  Al1631   1.0000 0.22500  0.02500  0.75000  Biso   1.000  Al
  Al1632   1.0000 0.22500  0.07500  0.77500  Biso   1.000  Al
  Al1633   1.0000 0.27500  0.02500  0.77500  Biso   1.000  Al
  Al1634   1.0000 0.27500  0.07500  0.75000  Biso   1.000  Al
  Al1635   1.0000 0.22500  0.02500  0.80000  Biso   1.000  Al
  Al1636   1.0000 0.22500  0.07500  0.82500  Biso   1.000  Al
  Al1637   1.0000 0.27500  0.02500  0.82500  Biso   1.000  Al
  Al1638   1.0000 0.27500  0.07500  0.80000  Biso   1.000  Al
  Al1639   1.0000 0.22500  0.02500  0.85000  Biso   1.000  Al
  Al1640   1.0000 0.22500  0.07500  0.87500  Biso   1.000  Al
  Al1641   1.0000 0.27500  0.02500  0.87500  Biso   1.000  Al
  Al1642   1.0000 0.27500  0.07500  0.85000  Biso   1.000  Al
  Al1643   1.0000 0.22500  0.02500  0.90000  Biso   1.000  Al
  Al1644   1.0000 0.22500  0.07500  0.92500  Biso   1.000  Al
  Al1645   1.0000 0.27500  0.02500  0.92500  Biso   1.000  Al
  Al1646   1.0000 0.27500  0.07500  0.90000  Biso   1.000  Al
  Al1647   1.0000 0.22500  0.02500  0.95000  Biso   1.000  Al
  Al1648   1.0000 0.22500  0.07500  0.97500  Biso   1.000  Al
  Al1649   1.0000 0.27500  0.02500  0.97500  Biso   1.000  Al
  Al1650   1.0000 0.27500  0.07500  0.95000  Biso   1.000  Al
  Al1651   1.0000 0.22500  0.12500  0.00000  Biso   1.000  Al
  Al1652   1.0000 0.22500  0.17500  0.02500  Biso   1.000  Al
  Al1653   1.0000 0.27500  0.12500  0.02500  Biso   1.000  Al
  Al1654   1.0000 0.27500  0.17500  0.00000  Biso   1.000  Al
  Al1655   1.0000 0.22500  0.12500  0.05000  Biso   1.000  Al
  Al1656   1.0000 0.22500  0.17500  0.07500  Biso   1.000  Al
  Al1657   1.0000 0.27500  0.12500  0.07500  Biso   1.000  Al
  Al1658   1.0000 0.27500  0.17500  0.05000  Biso   1.000  Al
  Al1659   1.0000 0.22500  0.12500  0.10000  Biso   1.000  Al
  Al1660   1.0000 0.22500  0.17500  0.12500  Biso   1.000  Al
  Al1661   1.0000 0.27500  0.12500  0.12500  Biso   1.000  Al
  Al1662   1.0000 0.27500  0.17500  0.10000  Biso   1.000  Al
  Al1663   1.0000 0.22500  0.12500  0.15000  Biso   1.000  Al
  Al1664   1.0000 0.22500  0.17500  0.17500  Biso   1.000  Al
  Al1665   1.0000 0.27500  0.12500  0.17500  Biso   1.000  Al
  Al1666   1.0000 0.27500  0.17500  0.15000  Biso   1.000  Al
  Al1667   1.0000 0.22500  0.12500  0.20000  Biso   1.000  Al
  Al1668   1.0000 0.22500  0.17500  0.22500  Biso   1.000  Al
  Al1669   1.0000 0.27500  0.12500  0.22500  Biso   1.000  Al
  Al1670   1.0000 0.27500  0.17500  0.20000  Biso   1.000  Al
  Al1671   1.0000 0.22500  0.12500  0.25000  Biso   1.000  Al
  Al1672   1.0000 0.22500  0.17500  0.27500  Biso   1.000  Al
  Al1673   1.0000 0.27500  0.12500  0.27500  Biso   1.000  Al
  Al1674   1.0000 0.27500  0.17500  0.25000  Biso   1.000  Al
  Al1675   1.0000 0.22500  0.12500  0.30000  Biso   1.000  Al
  Al1676   1.0000 0.22500  0.17500  0.32500  Biso   1.000  Al
  Al1677   1.0000 0.27500  0.12500  0.32500  Biso   1.000  Al
  Al1678   1.0000 0.27500  0.17500  0.30000  Biso   1.000  Al
  Al1679   1.0000 0.22500  0.12500  0.35000  Biso   1.000  Al
  Al1680   1.0000 0.22500  0.17500  0.37500  Biso   1.000  Al
  Al1681   1.0000 0.27500  0.12500  0.37500  Biso   1.000  Al
  Al1682   1.0000 0.27500  0.17500  0.35000  Biso   1.000  Al
  Al1683   1.0000 0.22500  0.12500  0.40000  Biso   1.000  Al
  Al1684   1.0000 0.22500  0.17500  0.42500  Biso   1.000  Al
  Al1685   1.0000 0.27500  0.12500  0.42500  Biso   1.000  Al
  Al1686   1.0000 0.27500  0.17500  0.40000  Biso   1.000  Al
  Al1687   1.0000 0.22500  0.12500  0.45000  Biso   1.000  Al
  Al1688   1.0000 0.22500  0.17500  0.47500  Biso   1.000  Al
  Al1689   1.0000 0.27500  0.12500  0.47500  Biso   1.000  Al
  Al1690   1.0000 0.27500  0.17500  0.45000  Biso   1.000  Al
  Al1691   1.0000 0.22500  0.12500  0.50000  Biso   1.000  Al
  Al1692   1.0000 0.22500  0.17500  0.52500  Biso   1.000  Al
  Al1693   1.0000 0.27500  0.12500  0.52500  Biso   1.000  Al
  Al1694   1.0000 0.27500  0.17500  0.50000  Biso   1.000  Al
  Al1695   1.0000 0.22500  0.12500  0.55000  Biso   1.000  Al
  Al1696   1.0000 0.22500  0.17500  0.57500  Biso   1.000  Al
  Al1697   1.0000 0.27500  0.12500  0.57500  Biso   1.000  Al
  Al1698   1.0000 0.27500  0.17500  0.55000  Biso   1.000  Al
  Al1699   1.0000 0.22500  0.12500  0.60000  Biso   1.000  Al
  Al1700   1.0000 0.22500  0.17500  0.62500  Biso   1.000  Al
  Al1701   1.0000 0.27500  0.12500  0.62500  Biso   1.000  Al
  Al1702   1.0000 0.27500  0.17500  0.60000  Biso   1.000  Al
  Al1703   1.0000 0.22500  0.12500  0.65000  Biso   1.000  Al
  Al1704   1.0000 0.22500  0.17500  0.67500  Biso   1.000  Al
  Al1705   1.0000 0.27500  0.12500  0.67500  Biso   1.000  Al
  Al1706   1.0000 0.27500  0.17500  0.65000  Biso   1.000  Al
  Al1707   1.0000 0.22500  0.12500  0.70000  Biso   1.000  Al
  Al1708   1.0000 0.22500  0.17500  0.72500  Biso   1.000  Al
  Al1709   1.0000 0.27500  0.12500  0.72500  Biso   1.000  Al
  Al1710   1.0000 0.27500  0.17500  0.70000  Biso   1.000  Al
  Al1711   1.0000 0.22500  0.12500  0.75000  Biso   1.000  Al
  Al1712   1.0000 0.22500  0.17500  0.77500  Biso   1.000  Al
  Al1713   1.0000 0.27500  0.12500  0.77500  Biso   1.000  Al
  Al1714   1.0000 0.27500  0.17500  0.75000  Biso   1.000  Al
  Al1715   1.0000 0.22500  0.12500  0.80000  Biso   1.000  Al
  Al1716   1.0000 0.22500  0.17500  0.82500  Biso   1.000  Al
  Al1717   1.0000 0.27500  0.12500  0.82500  Biso   1.000  Al
  Al1718   1.0000 0.27500  0.17500  0.80000  Biso   1.000  Al
  Al1719   1.0000 0.22500  0.12500  0.85000  Biso   1.000  Al
  Al1720   1.0000 0.22500  0.17500  0.87500  Biso   1.000  Al
  Al1721   1.0000 0.27500  0.12500  0.87500  Biso   1.000  Al
  Al1722   1.0000 0.27500  0.17500  0.85000  Biso   1.000  Al
  Al1723   1.0000 0.22500  0.12500  0.90000  Biso   1.000  Al
  Al1724   1.0000 0.22500  0.17500  0.92500  Biso   1.000  Al
  Al1725   1.0000 0.27500  0.12500  0.92500  Biso   1.000  Al
  Al1726   1.0000 0.27500  0.17500  0.90000  Biso   1.000  Al
  Al1727   1.0000 0.22500  0.12500  0.95000  Biso   1.000  Al
  Al1728   1.0000 0.22500  0.17500  0.97500  Biso   1.000  Al
  Al1729   1.0000 0.27500  0.12500  0.97500  Biso   1.000  Al
  Al1730   1.0000 0.27500  0.17500  0.95000  Biso   1.000  Al
  Al1731   1.0000 0.22500  0.22500  0.00000  Biso   1.000  Al
  Al1732   1.0000 0.22500  0.27500  0.02500  Biso   1.000  Al
  Al1733   1.0000 0.27500  0.22500  0.02500  Biso   1.000  Al
  Al1734   1.0000 0.27500  0.27500  0.00000  Biso   1.000  Al
  Al1735   1.0000 0.22500  0.22500  0.05000  Biso   1.000  Al
  Al1736   1.0000 0.22500  0.27500  0.07500  Biso   1.000  Al
  Al1737   1.0000 0.27500  0.22500  0.07500  Biso   1.000  Al
  Al1738   1.0000 0.27500  0.27500  0.05000  Biso   1.000  Al
  Al1739   1.0000 0.22500  0.22500  0.10000  Biso   1.000  Al
  Al1740   1.0000 0.22500  0.27500  0.12500  Biso   1.000  Al
  Al1741   1.0000 0.27500  0.22500  0.12500  Biso   1.000  Al
  Al1742   1.0000 0.27500  0.27500  0.10000  Biso   1.000  Al
  Al1743   1.0000 0.22500  0.22500  0.15000  Biso   1.000  Al
  Al1744   1.0000 0.22500  0.27500  0.17500  Biso   1.000  Al
  Al1745   1.0000 0.27500  0.22500  0.17500  Biso   1.000  Al
  Al1746   1.0000 0.27500  0.27500  0.15000  Biso   1.000  Al
  Al1747   1.0000 0.22500  0.22500  0.20000  Biso   1.000  Al
  Al1748   1.0000 0.22500  0.27500  0.22500  Biso   1.000  Al
  Al1749   1.0000 0.27500  0.22500  0.22500  Biso   1.000  Al
  Al1750   1.0000 0.27500  0.27500  0.20000  Biso   1.000  Al
  Al1751   1.0000 0.22500  0.22500  0.25000  Biso   1.000  Al
  Al1752   1.0000 0.22500  0.27500  0.27500  Biso   1.000  Al
  Al1753   1.0000 0.27500  0.22500  0.27500  Biso   1.000  Al
  Al1754   1.0000 0.27500  0.27500  0.25000  Biso   1.000  Al
  Al1755   1.0000 0.22500  0.22500  0.30000  Biso   1.000  Al
  Al1756   1.0000 0.22500  0.27500  0.32500  Biso   1.000  Al
  Al1757   1.0000 0.27500  0.22500  0.32500  Biso   1.000  Al
  Al1758   1.0000 0.27500  0.27500  0.30000  Biso   1.000  Al
  Al1759   1.0000 0.22500  0.22500  0.35000  Biso   1.000  Al
  Al1760   1.0000 0.22500  0.27500  0.37500  Biso   1.000  Al
  Al1761   1.0000 0.27500  0.22500  0.37500  Biso   1.000  Al
  Al1762   1.0000 0.27500  0.27500  0.35000  Biso   1.000  Al
  Al1763   1.0000 0.22500  0.22500  0.40000  Biso   1.000  Al
  Al1764   1.0000 0.22500  0.27500  0.42500  Biso   1.000  Al
  Al1765   1.0000 0.27500  0.22500  0.42500  Biso   1.000  Al
  Al1766   1.0000 0.27500  0.27500  0.40000  Biso   1.000  Al
  Al1767   1.0000 0.22500  0.22500  0.45000  Biso   1.000  Al
  Al1768   1.0000 0.22500  0.27500  0.47500  Biso   1.000  Al
  Al1769   1.0000 0.27500  0.22500  0.47500  Biso   1.000  Al
  Al1770   1.0000 0.27500  0.27500  0.45000  Biso   1.000  Al
  Al1771   1.0000 0.22500  0.22500  0.50000  Biso   1.000  Al
  Al1772   1.0000 0.22500  0.27500  0.52500  Biso   1.000  Al
  Al1773   1.0000 0.27500  0.22500  0.52500  Biso   1.000  Al
  Al1774   1.0000 0.27500  0.27500  0.50000  Biso   1.000  Al
  Al1775   1.0000 0.22500  0.22500  0.55000  Biso   1.000  Al
  Al1776   1.0000 0.22500  0.27500  0.57500  Biso   1.000  Al
  Al1777   1.0000 0.27500  0.22500  0.57500  Biso   1.000  Al
  Al1778   1.0000 0.27500  0.27500  0.55000  Biso   1.000  Al
  Al1779   1.0000 0.22500  0.22500  0.60000  Biso   1.000  Al
  Al1780   1.0000 0.22500  0.27500  0.62500  Biso   1.000  Al
  Al1781   1.0000 0.27500  0.22500  0.62500  Biso   1.000  Al
  Al1782   1.0000 0.27500  0.27500  0.60000  Biso   1.000  Al
  Al1783   1.0000 0.22500  0.22500  0.65000  Biso   1.000  Al
  Al1784   1.0000 0.22500  0.27500  0.67500  Biso   1.000  Al
  Al1785   1.0000 0.27500  0.22500  0.67500  Biso   1.000  Al
  Al1786   1.0000 0.27500  0.27500  0.65000  Biso   1.000  Al
  Al1787   1.0000 0.22500  0.22500  0.70000  Biso   1.000  Al
  Al1788   1.0000 0.22500  0.27500  0.72500  Biso   1.000  Al
  Al1789   1.0000 0.27500  0.22500  0.72500  Biso   1.000  Al
  Al1790   1.0000 0.27500  0.27500  0.70000  Biso   1.000  Al
  Al1791   1.0000 0.22500  0.22500  0.75000  Biso   1.000  Al
  Al1792   1.0000 0.22500  0.27500  0.77500  Biso   1.000  Al
  Al1793   1.0000 0.27500  0.22500  0.77500  Biso   1.000  Al
  Al1794   1.0000 0.27500  0.27500  0.75000  Biso   1.000  Al
  Al1795   1.0000 0.22500  0.22500  0.80000  Biso   1.000  Al
  Al1796   1.0000 0.22500  0.27500  0.82500  Biso   1.000  Al
  Al1797   1.0000 0.27500  0.22500  0.82500  Biso   1.000  Al
  Al1798   1.0000 0.27500  0.27500  0.80000  Biso   1.000  Al
  Al1799   1.0000 0.22500  0.22500  0.85000  Biso   1.000  Al
  Al1800   1.0000 0.22500  0.27500  0.87500  Biso   1.000  Al
  Al1801   1.0000 0.27500  0.22500  0.87500  Biso   1.000  Al
  Al1802   1.0000 0.27500  0.27500  0.85000  Biso   1.000  Al
  Al1803   1.0000 0.22500  0.22500  0.90000  Biso   1.000  Al
  Al1804   1.0000 0.22500  0.27500  0.92500  Biso   1.000  Al
  Al1805   1.0000 0.27500  0.22500  0.92500  Biso   1.000  Al
  Al1806   1.0000 0.27500  0.27500  0.90000  Biso   1.000  Al
  Al1807   1.0000 0.22500  0.22500  0.95000  Biso   1.000  Al
  Al1808   1.0000 0.22500  0.27500  0.97500  Biso   1.000  Al
  Al1809   1.0000 0.27500  0.22500  0.97500  Biso   1.000  Al
  Al1810   1.0000 0.27500  0.27500  0.95000  Biso   1.000  Al
  Al1811   1.0000 0.22500  0.32500  0.00000  Biso   1.000  Al
  Al1812   1.0000 0.22500  0.37500  0.02500  Biso   1.000  Al
  Al1813   1.0000 0.27500  0.32500  0.02500  Biso   1.000  Al
  Al1814   1.0000 0.27500  0.37500  0.00000  Biso   1.000  Al
  Al1815   1.0000 0.22500  0.32500  0.05000  Biso   1.000  Al
  Al1816   1.0000 0.22500  0.37500  0.07500  Biso   1.000  Al
  Al1817   1.0000 0.27500  0.32500  0.07500  Biso   1.000  Al
  Al1818   1.0000 0.27500  0.37500  0.05000  Biso   1.000  Al
  Al1819   1.0000 0.22500  0.32500  0.10000  Biso   1.000  Al
  Al1820   1.0000 0.22500  0.37500  0.12500  Biso   1.000  Al
  Al1821   1.0000 0.27500  0.32500  0.12500  Biso   1.000  Al
  Al1822   1.0000 0.27500  0.37500  0.10000  Biso   1.000  Al
  Al1823   1.0000 0.22500  0.32500  0.15000  Biso   1.000  Al
  Al1824   1.0000 0.22500  0.37500  0.17500  Biso   1.000  Al
  Al1825   1.0000 0.27500  0.32500  0.17500  Biso   1.000  Al
  Al1826   1.0000 0.27500  0.37500  0.15000  Biso   1.000  Al
  Al1827   1.0000 0.22500  0.32500  0.20000  Biso   1.000  Al
  Al1828   1.0000 0.22500  0.37500  0.22500  Biso   1.000  Al
  Al1829   1.0000 0.27500  0.32500  0.22500  Biso   1.000  Al
  Al1830   1.0000 0.27500  0.37500  0.20000  Biso   1.000  Al
  Al1831   1.0000 0.22500  0.32500  0.25000  Biso   1.000  Al
  Al1832   1.0000 0.22500  0.37500  0.27500  Biso   1.000  Al
  Al1833   1.0000 0.27500  0.32500  0.27500  Biso   1.000  Al
  Al1834   1.0000 0.27500  0.37500  0.25000  Biso   1.000  Al
  Al1835   1.0000 0.22500  0.32500  0.30000  Biso   1.000  Al
  Al1836   1.0000 0.22500  0.37500  0.32500  Biso   1.000  Al
  Al1837   1.0000 0.27500  0.32500  0.32500  Biso   1.000  Al
  Al1838   1.0000 0.27500  0.37500  0.30000  Biso   1.000  Al
  Al1839   1.0000 0.22500  0.32500  0.35000  Biso   1.000  Al
  Al1840   1.0000 0.22500  0.37500  0.37500  Biso   1.000  Al
  Al1841   1.0000 0.27500  0.32500  0.37500  Biso   1.000  Al
  Al1842   1.0000 0.27500  0.37500  0.35000  Biso   1.000  Al
  Al1843   1.0000 0.22500  0.32500  0.40000  Biso   1.000  Al
  Al1844   1.0000 0.22500  0.37500  0.42500  Biso   1.000  Al
  Al1845   1.0000 0.27500  0.32500  0.42500  Biso   1.000  Al
  Al1846   1.0000 0.27500  0.37500  0.40000  Biso   1.000  Al
  Al1847   1.0000 0.22500  0.32500  0.45000  Biso   1.000  Al
  Al1848   1.0000 0.22500  0.37500  0.47500  Biso   1.000  Al
  Al1849   1.0000 0.27500  0.32500  0.47500  Biso   1.000  Al
  Al1850   1.0000 0.27500  0.37500  0.45000  Biso   1.000  Al
  Al1851   1.0000 0.22500  0.32500  0.50000  Biso   1.000  Al
  Al1852   1.0000 0.22500  0.37500  0.52500  Biso   1.000  Al
  Al1853   1.0000 0.27500  0.32500  0.52500  Biso   1.000  Al
  Al1854   1.0000 0.27500  0.37500  0.50000  Biso   1.000  Al
  Al1855   1.0000 0.22500  0.32500  0.55000  Biso   1.000  Al
  Al1856   1.0000 0.22500  0.37500  0.57500  Biso   1.000  Al
  Al1857   1.0000 0.27500  0.32500  0.57500  Biso   1.000  Al
  Al1858   1.0000 0.27500  0.37500  0.55000  Biso   1.000  Al
  Al1859   1.0000 0.22500  0.32500  0.60000  Biso   1.000  Al
  Al1860   1.0000 0.22500  0.37500  0.62500  Biso   1.000  Al
  Al1861   1.0000 0.27500  0.32500  0.62500  Biso   1.000  Al
  Al1862   1.0000 0.27500  0.37500  0.60000  Biso   1.000  Al
  Al1863   1.0000 0.22500  0.32500  0.65000  Biso   1.000  Al
  Al1864   1.0000 0.22500  0.37500  0.67500  Biso   1.000  Al
  Al1865   1.0000 0.27500  0.32500  0.67500  Biso   1.000  Al
  Al1866   1.0000 0.27500  0.37500  0.65000  Biso   1.000  Al
  Al1867   1.0000 0.22500  0.32500  0.70000  Biso   1.000  Al
  Al1868   1.0000 0.22500  0.37500  0.72500  Biso   1.000  Al
  Al1869   1.0000 0.27500  0.32500  0.72500  Biso   1.000  Al
  Al1870   1.0000 0.27500  0.37500  0.70000  Biso   1.000  Al
  Al1871   1.0000 0.22500  0.32500  0.75000  Biso   1.000  Al
  Al1872   1.0000 0.22500  0.37500  0.77500  Biso   1.000  Al
  Al1873   1.0000 0.27500  0.32500  0.77500  Biso   1.000  Al
  Al1874   1.0000 0.27500  0.37500  0.75000  Biso   1.000  Al
  Al1875   1.0000 0.22500  0.32500  0.80000  Biso   1.000  Al
  Al1876   1.0000 0.22500  0.37500  0.82500  Biso   1.000  Al
  Al1877   1.0000 0.27500  0.32500  0.82500  Biso   1.000  Al
  Al1878   1.0000 0.27500  0.37500  0.80000  Biso   1.000  Al
  Al1879   1.0000 0.22500  0.32500  0.85000  Biso   1.000  Al
  Al1880   1.0000 0.22500  0.37500  0.87500  Biso   1.000  Al
  Al1881   1.0000 0.27500  0.32500  0.87500  Biso   1.000  Al
  Al1882   1.0000 0.27500  0.37500  0.85000  Biso   1.000  Al
  Al1883   1.0000 0.22500  0.32500  0.90000  Biso   1.000  Al
  Al1884   1.0000 0.22500  0.37500  0.92500  Biso   1.000  Al
  Al1885   1.0000 0.27500  0.32500  0.92500  Biso   1.000  Al
  Al1886   1.0000 0.27500  0.37500  0.90000  Biso   1.000  Al
  Al1887   1.0000 0.22500  0.32500  0.95000  Biso   1.000  Al
  Al1888   1.0000 0.22500  0.37500  0.97500  Biso   1.000  Al
  Al1889   1.0000 0.27500  0.32500  0.97500  Biso   1.000  Al
  Al1890   1.0000 0.27500  0.37500  0.95000  Biso   1.000  Al
  Al1891   1.0000 0.22500  0.42500  0.00000  Biso   1.000  Al
  Al1892   1.0000 0.22500  0.47500  0.02500  Biso   1.000  Al
  Al1893   1.0000 0.27500  0.42500  0.02500  Biso   1.000  Al
  Al1894   1.0000 0.27500  0.47500  0.00000  Biso   1.000  Al
  Al1895   1.0000 0.22500  0.42500  0.05000  Biso   1.000  Al
  Al1896   1.0000 0.22500  0.47500  0.07500  Biso   1.000  Al
  Al1897   1.0000 0.27500  0.42500  0.07500  Biso   1.000  Al
  Al1898   1.0000 0.27500  0.47500  0.05000  Biso   1.000  Al
  Al1899   1.0000 0.22500  0.42500  0.10000  Biso   1.000  Al
  Al1900   1.0000 0.22500  0.47500  0.12500  Biso   1.000  Al
  Al1901   1.0000 0.27500  0.42500  0.12500  Biso   1.000  Al
  Al1902   1.0000 0.27500  0.47500  0.10000  Biso   1.000  Al
  Al1903   1.0000 0.22500  0.42500  0.15000  Biso   1.000  Al
  Al1904   1.0000 0.22500  0.47500  0.17500  Biso   1.000  Al
  Al1905   1.0000 0.27500  0.42500  0.17500  Biso   1.000  Al
  Al1906   1.0000 0.27500  0.47500  0.15000  Biso   1.000  Al
  Al1907   1.0000 0.22500  0.42500  0.20000  Biso   1.000  Al
  Al1908   1.0000 0.22500  0.47500  0.22500  Biso   1.000  Al
  Al1909   1.0000 0.27500  0.42500  0.22500  Biso   1.000  Al
  Al1910   1.0000 0.27500  0.47500  0.20000  Biso   1.000  Al
  Al1911   1.0000 0.22500  0.42500  0.25000  Biso   1.000  Al
  Al1912   1.0000 0.22500  0.47500  0.27500  Biso   1.000  Al
  Al1913   1.0000 0.27500  0.42500  0.27500  Biso   1.000  Al
  Al1914   1.0000 0.27500  0.47500  0.25000  Biso   1.000  Al
  Al1915   1.0000 0.22500  0.42500  0.30000  Biso   1.000  Al
  Al1916   1.0000 0.22500  0.47500  0.32500  Biso   1.000  Al
  Al1917   1.0000 0.27500  0.42500  0.32500  Biso   1.000  Al
  Al1918   1.0000 0.27500  0.47500  0.30000  Biso   1.000  Al
  Al1919   1.0000 0.22500  0.42500  0.35000  Biso   1.000  Al
  Al1920   1.0000 0.22500  0.47500  0.37500  Biso   1.000  Al
  Al1921   1.0000 0.27500  0.42500  0.37500  Biso   1.000  Al
  Al1922   1.0000 0.27500  0.47500  0.35000  Biso   1.000  Al
  Al1923   1.0000 0.22500  0.42500  0.40000  Biso   1.000  Al
  Al1924   1.0000 0.22500  0.47500  0.42500  Biso   1.000  Al
  Al1925   1.0000 0.27500  0.42500  0.42500  Biso   1.000  Al
  Al1926   1.0000 0.27500  0.47500  0.40000  Biso   1.000  Al
  Al1927   1.0000 0.22500  0.42500  0.45000  Biso   1.000  Al
  Al1928   1.0000 0.22500  0.47500  0.47500  Biso   1.000  Al
  Al1929   1.0000 0.27500  0.42500  0.47500  Biso   1.000  Al
  Al1930   1.0000 0.27500  0.47500  0.45000  Biso   1.000  Al
  Al1931   1.0000 0.22500  0.42500  0.50000  Biso   1.000  Al
  Al1932   1.0000 0.22500  0.47500  0.52500  Biso   1.000  Al
  Al1933   1.0000 0.27500  0.42500  0.52500  Biso   1.000  Al
  Al1934   1.0000 0.27500  0.47500  0.50000  Biso   1.000  Al
  Al1935   1.0000 0.22500  0.42500  0.55000  Biso   1.000  Al
  Al1936   1.0000 0.22500  0.47500  0.57500  Biso   1.000  Al
  Al1937   1.0000 0.27500  0.42500  0.57500  Biso   1.000  Al
  Al1938   1.0000 0.27500  0.47500  0.55000  Biso   1.000  Al
  Al1939   1.0000 0.22500  0.42500  0.60000  Biso   1.000  Al
  Al1940   1.0000 0.22500  0.47500  0.62500  Biso   1.000  Al
  Al1941   1.0000 0.27500  0.42500  0.62500  Biso   1.000  Al
  Al1942   1.0000 0.27500  0.47500  0.60000  Biso   1.000  Al
  Al1943   1.0000 0.22500  0.42500  0.65000  Biso   1.000  Al
  Al1944   1.0000 0.22500  0.47500  0.67500  Biso   1.000  Al
  Al1945   1.0000 0.27500  0.42500  0.67500  Biso   1.000  Al
  Al1946   1.0000 0.27500  0.47500  0.65000  Biso   1.000  Al
  Al1947   1.0000 0.22500  0.42500  0.70000  Biso   1.000  Al
  Al1948   1.0000 0.22500  0.47500  0.72500  Biso   1.000  Al
  Al1949   1.0000 0.27500  0.42500  0.72500  Biso   1.000  Al
  Al1950   1.0000 0.27500  0.47500  0.70000  Biso   1.000  Al
  Al1951   1.0000 0.22500  0.42500  0.75000  Biso   1.000  Al
  Al1952   1.0000 0.22500  0.47500  0.77500  Biso   1.000  Al
  Al1953   1.0000 0.27500  0.42500  0.77500  Biso   1.000  Al
  Al1954   1.0000 0.27500  0.47500  0.75000  Biso   1.000  Al
  Al1955   1.0000 0.22500  0.42500  0.80000  Biso   1.000  Al
  Al1956   1.0000 0.22500  0.47500  0.82500  Biso   1.000  Al
  Al1957   1.0000 0.27500  0.42500  0.82500  Biso   1.000  Al
  Al1958   1.0000 0.27500  0.47500  0.80000  Biso   1.000  Al
  Al1959   1.0000 0.22500  0.42500  0.85000  Biso   1.000  Al
  Al1960   1.0000 0.22500  0.47500  0.87500  Biso   1.000  Al
  Al1961   1.0000 0.27500  0.42500  0.87500  Biso   1.000  Al
  Al1962   1.0000 0.27500  0.47500  0.85000  Biso   1.000  Al
  Al1963   1.0000 0.22500  0.42500  0.90000  Biso   1.000  Al
  Al1964   1.0000 0.22500  0.47500  0.92500  Biso   1.000  Al
  Al1965   1.0000 0.27500  0.42500  0.92500  Biso   1.000  Al
  Al1966   1.0000 0.27500  0.47500  0.90000  Biso   1.000  Al
  Al1967   1.0000 0.22500  0.42500  0.95000  Biso   1.000  Al
  Al1968   1.0000 0.22500  0.47500  0.97500  Biso   1.000  Al
  Al1969   1.0000 0.27500  0.42500  0.97500  Biso   1.000  Al
  Al1970   1.0000 0.27500  0.47500  0.95000  Biso   1.000  Al
  Al1971   1.0000 0.22500  0.52500  0.00000  Biso   1.000  Al
  Al1972   1.0000 0.22500  0.57500  0.02500  Biso   1.000  Al
  Al1973   1.0000 0.27500  0.52500  0.02500  Biso   1.000  Al
  Al1974   1.0000 0.27500  0.57500  0.00000  Biso   1.000  Al
  Al1975   1.0000 0.22500  0.52500  0.05000  Biso   1.000  Al
  Al1976   1.0000 0.22500  0.57500  0.07500  Biso   1.000  Al
  Al1977   1.0000 0.27500  0.52500  0.07500  Biso   1.000  Al
  Al1978   1.0000 0.27500  0.57500  0.05000  Biso   1.000  Al
  Al1979   1.0000 0.22500  0.52500  0.10000  Biso   1.000  Al
  Al1980   1.0000 0.22500  0.57500  0.12500  Biso   1.000  Al
  Al1981   1.0000 0.27500  0.52500  0.12500  Biso   1.000  Al
  Al1982   1.0000 0.27500  0.57500  0.10000  Biso   1.000  Al
  Al1983   1.0000 0.22500  0.52500  0.15000  Biso   1.000  Al
  Al1984   1.0000 0.22500  0.57500  0.17500  Biso   1.000  Al
  Al1985   1.0000 0.27500  0.52500  0.17500  Biso   1.000  Al
  Al1986   1.0000 0.27500  0.57500  0.15000  Biso   1.000  Al
  Al1987   1.0000 0.22500  0.52500  0.20000  Biso   1.000  Al
  Al1988   1.0000 0.22500  0.57500  0.22500  Biso   1.000  Al
  Al1989   1.0000 0.27500  0.52500  0.22500  Biso   1.000  Al
  Al1990   1.0000 0.27500  0.57500  0.20000  Biso   1.000  Al
  Al1991   1.0000 0.22500  0.52500  0.25000  Biso   1.000  Al
  Al1992   1.0000 0.22500  0.57500  0.27500  Biso   1.000  Al
  Al1993   1.0000 0.27500  0.52500  0.27500  Biso   1.000  Al
  Al1994   1.0000 0.27500  0.57500  0.25000  Biso   1.000  Al
  Al1995   1.0000 0.22500  0.52500  0.30000  Biso   1.000  Al
  Al1996   1.0000 0.22500  0.57500  0.32500  Biso   1.000  Al
  Al1997   1.0000 0.27500  0.52500  0.32500  Biso   1.000  Al
  Al1998   1.0000 0.27500  0.57500  0.30000  Biso   1.000  Al
  Al1999   1.0000 0.22500  0.52500  0.35000  Biso   1.000  Al
  Al2000   1.0000 0.22500  0.57500  0.37500  Biso   1.000  Al
  Al2001   1.0000 0.27500  0.52500  0.37500  Biso   1.000  Al
  Al2002   1.0000 0.27500  0.57500  0.35000  Biso   1.000  Al
  Al2003   1.0000 0.22500  0.52500  0.40000  Biso   1.000  Al
  Al2004   1.0000 0.22500  0.57500  0.42500  Biso   1.000  Al
  Al2005   1.0000 0.27500  0.52500  0.42500  Biso   1.000  Al
  Al2006   1.0000 0.27500  0.57500  0.40000  Biso   1.000  Al
  Al2007   1.0000 0.22500  0.52500  0.45000  Biso   1.000  Al
  Al2008   1.0000 0.22500  0.57500  0.47500  Biso   1.000  Al
  Al2009   1.0000 0.27500  0.52500  0.47500  Biso   1.000  Al
  Al2010   1.0000 0.27500  0.57500  0.45000  Biso   1.000  Al
  Al2011   1.0000 0.22500  0.52500  0.50000  Biso   1.000  Al
  Al2012   1.0000 0.22500  0.57500  0.52500  Biso   1.000  Al
  Al2013   1.0000 0.27500  0.52500  0.52500  Biso   1.000  Al
  Al2014   1.0000 0.27500  0.57500  0.50000  Biso   1.000  Al
  Al2015   1.0000 0.22500  0.52500  0.55000  Biso   1.000  Al
  Al2016   1.0000 0.22500  0.57500  0.57500  Biso   1.000  Al
  Al2017   1.0000 0.27500  0.52500  0.57500  Biso   1.000  Al
  Al2018   1.0000 0.27500  0.57500  0.55000  Biso   1.000  Al
  Al2019   1.0000 0.22500  0.52500  0.60000  Biso   1.000  Al
  Al2020   1.0000 0.22500  0.57500  0.62500  Biso   1.000  Al
  Al2021   1.0000 0.27500  0.52500  0.62500  Biso   1.000  Al
  Al2022   1.0000 0.27500  0.57500  0.60000  Biso   1.000  Al
  Al2023   1.0000 0.22500  0.52500  0.65000  Biso   1.000  Al
  Al2024   1.0000 0.22500  0.57500  0.67500  Biso   1.000  Al
  Al2025   1.0000 0.27500  0.52500  0.67500  Biso   1.000  Al
  Al2026   1.0000 0.27500  0.57500  0.65000  Biso   1.000  Al
  Al2027   1.0000 0.22500  0.52500  0.70000  Biso   1.000  Al
  Al2028   1.0000 0.22500  0.57500  0.72500  Biso   1.000  Al
  Al2029   1.0000 0.27500  0.52500  0.72500  Biso   1.000  Al
  Al2030   1.0000 0.27500  0.57500  0.70000  Biso   1.000  Al
  Al2031   1.0000 0.22500  0.52500  0.75000  Biso   1.000  Al
  Al2032   1.0000 0.22500  0.57500  0.77500  Biso   1.000  Al
  Al2033   1.0000 0.27500  0.52500  0.77500  Biso   1.000  Al
  Al2034   1.0000 0.27500  0.57500  0.75000  Biso   1.000  Al
  Al2035   1.0000 0.22500  0.52500  0.80000  Biso   1.000  Al
  Al2036   1.0000 0.22500  0.57500  0.82500  Biso   1.000  Al
  Al2037   1.0000 0.27500  0.52500  0.82500  Biso   1.000  Al
  Al2038   1.0000 0.27500  0.57500  0.80000  Biso   1.000  Al
  Al2039   1.0000 0.22500  0.52500  0.85000  Biso   1.000  Al
  Al2040   1.0000 0.22500  0.57500  0.87500  Biso   1.000  Al
  Al2041   1.0000 0.27500  0.52500  0.87500  Biso   1.000  Al
  Al2042   1.0000 0.27500  0.57500  0.85000  Biso   1.000  Al
  Al2043   1.0000 0.22500  0.52500  0.90000  Biso   1.000  Al
  Al2044   1.0000 0.22500  0.57500  0.92500  Biso   1.000  Al
  Al2045   1.0000 0.27500  0.52500  0.92500  Biso   1.000  Al
  Al2046   1.0000 0.27500  0.57500  0.90000  Biso   1.000  Al
  Al2047   1.0000 0.22500  0.52500  0.95000  Biso   1.000  Al
  Al2048   1.0000 0.22500  0.57500  0.97500  Biso   1.000  Al
  Al2049   1.0000 0.27500  0.52500  0.97500  Biso   1.000  Al
  Al2050   1.0000 0.27500  0.57500  0.95000  Biso   1.000  Al
  Al2051   1.0000 0.22500  0.62500  0.00000  Biso   1.000  Al
  Al2052   1.0000 0.22500  0.67500  0.02500  Biso   1.000  Al
  Al2053   1.0000 0.27500  0.62500  0.02500  Biso   1.000  Al
  Al2054   1.0000 0.27500  0.67500  0.00000  Biso   1.000  Al
  Al2055   1.0000 0.22500  0.62500  0.05000  Biso   1.000  Al
  Al2056   1.0000 0.22500  0.67500  0.07500  Biso   1.000  Al
  Al2057   1.0000 0.27500  0.62500  0.07500  Biso   1.000  Al
  Al2058   1.0000 0.27500  0.67500  0.05000  Biso   1.000  Al
  Al2059   1.0000 0.22500  0.62500  0.10000  Biso   1.000  Al
  Al2060   1.0000 0.22500  0.67500  0.12500  Biso   1.000  Al
  Al2061   1.0000 0.27500  0.62500  0.12500  Biso   1.000  Al
  Al2062   1.0000 0.27500  0.67500  0.10000  Biso   1.000  Al
  Al2063   1.0000 0.22500  0.62500  0.15000  Biso   1.000  Al
  Al2064   1.0000 0.22500  0.67500  0.17500  Biso   1.000  Al
  Al2065   1.0000 0.27500  0.62500  0.17500  Biso   1.000  Al
  Al2066   1.0000 0.27500  0.67500  0.15000  Biso   1.000  Al
  Al2067   1.0000 0.22500  0.62500  0.20000  Biso   1.000  Al
  Al2068   1.0000 0.22500  0.67500  0.22500  Biso   1.000  Al
  Al2069   1.0000 0.27500  0.62500  0.22500  Biso   1.000  Al
  Al2070   1.0000 0.27500  0.67500  0.20000  Biso   1.000  Al
  Al2071   1.0000 0.22500  0.62500  0.25000  Biso   1.000  Al
  Al2072   1.0000 0.22500  0.67500  0.27500  Biso   1.000  Al
  Al2073   1.0000 0.27500  0.62500  0.27500  Biso   1.000  Al
  Al2074   1.0000 0.27500  0.67500  0.25000  Biso   1.000  Al
  Al2075   1.0000 0.22500  0.62500  0.30000  Biso   1.000  Al
  Al2076   1.0000 0.22500  0.67500  0.32500  Biso   1.000  Al
  Al2077   1.0000 0.27500  0.62500  0.32500  Biso   1.000  Al
  Al2078   1.0000 0.27500  0.67500  0.30000  Biso   1.000  Al
  Al2079   1.0000 0.22500  0.62500  0.35000  Biso   1.000  Al
  Al2080   1.0000 0.22500  0.67500  0.37500  Biso   1.000  Al
  Al2081   1.0000 0.27500  0.62500  0.37500  Biso   1.000  Al
  Al2082   1.0000 0.27500  0.67500  0.35000  Biso   1.000  Al
  Al2083   1.0000 0.22500  0.62500  0.40000  Biso   1.000  Al
  Al2084   1.0000 0.22500  0.67500  0.42500  Biso   1.000  Al
  Al2085   1.0000 0.27500  0.62500  0.42500  Biso   1.000  Al
  Al2086   1.0000 0.27500  0.67500  0.40000  Biso   1.000  Al
  Al2087   1.0000 0.22500  0.62500  0.45000  Biso   1.000  Al
  Al2088   1.0000 0.22500  0.67500  0.47500  Biso   1.000  Al
  Al2089   1.0000 0.27500  0.62500  0.47500  Biso   1.000  Al
  Al2090   1.0000 0.27500  0.67500  0.45000  Biso   1.000  Al
  Al2091   1.0000 0.22500  0.62500  0.50000  Biso   1.000  Al
  Al2092   1.0000 0.22500  0.67500  0.52500  Biso   1.000  Al
  Al2093   1.0000 0.27500  0.62500  0.52500  Biso   1.000  Al
  Al2094   1.0000 0.27500  0.67500  0.50000  Biso   1.000  Al
  Al2095   1.0000 0.22500  0.62500  0.55000  Biso   1.000  Al
  Al2096   1.0000 0.22500  0.67500  0.57500  Biso   1.000  Al
  Al2097   1.0000 0.27500  0.62500  0.57500  Biso   1.000  Al
  Al2098   1.0000 0.27500  0.67500  0.55000  Biso   1.000  Al
  Al2099   1.0000 0.22500  0.62500  0.60000  Biso   1.000  Al
  Al2100   1.0000 0.22500  0.67500  0.62500  Biso   1.000  Al
  Al2101   1.0000 0.27500  0.62500  0.62500  Biso   1.000  Al
  Al2102   1.0000 0.27500  0.67500  0.60000  Biso   1.000  Al
  Al2103   1.0000 0.22500  0.62500  0.65000  Biso   1.000  Al
  Al2104   1.0000 0.22500  0.67500  0.67500  Biso   1.000  Al
  Al2105   1.0000 0.27500  0.62500  0.67500  Biso   1.000  Al
  Al2106   1.0000 0.27500  0.67500  0.65000  Biso   1.000  Al
  Al2107   1.0000 0.22500  0.62500  0.70000  Biso   1.000  Al
  Al2108   1.0000 0.22500  0.67500  0.72500  Biso   1.000  Al
  Al2109   1.0000 0.27500  0.62500  0.72500  Biso   1.000  Al
  Al2110   1.0000 0.27500  0.67500  0.70000  Biso   1.000  Al
  Al2111   1.0000 0.22500  0.62500  0.75000  Biso   1.000  Al
  Al2112   1.0000 0.22500  0.67500  0.77500  Biso   1.000  Al
  Al2113   1.0000 0.27500  0.62500  0.77500  Biso   1.000  Al
  Al2114   1.0000 0.27500  0.67500  0.75000  Biso   1.000  Al
  Al2115   1.0000 0.22500  0.62500  0.80000  Biso   1.000  Al
  Al2116   1.0000 0.22500  0.67500  0.82500  Biso   1.000  Al
  Al2117   1.0000 0.27500  0.62500  0.82500  Biso   1.000  Al
  Al2118   1.0000 0.27500  0.67500  0.80000  Biso   1.000  Al
  Al2119   1.0000 0.22500  0.62500  0.85000  Biso   1.000  Al
  Al2120   1.0000 0.22500  0.67500  0.87500  Biso   1.000  Al
  Al2121   1.0000 0.27500  0.62500  0.87500  Biso   1.000  Al
  Al2122   1.0000 0.27500  0.67500  0.85000  Biso   1.000  Al
  Al2123   1.0000 0.22500  0.62500  0.90000  Biso   1.000  Al
  Al2124   1.0000 0.22500  0.67500  0.92500  Biso   1.000  Al
  Al2125   1.0000 0.27500  0.62500  0.92500  Biso   1.000  Al
  Al2126   1.0000 0.27500  0.67500  0.90000  Biso   1.000  Al
  Al2127   1.0000 0.22500  0.62500  0.95000  Biso   1.000  Al
  Al2128   1.0000 0.22500  0.67500  0.97500  Biso   1.000  Al
  Al2129   1.0000 0.27500  0.62500  0.97500  Biso   1.000  Al
  Al2130   1.0000 0.27500  0.67500  0.95000  Biso   1.000  Al
  Al2131   1.0000 0.22500  0.72500  0.00000  Biso   1.000  Al
  Al2132   1.0000 0.22500  0.77500  0.02500  Biso   1.000  Al
  Al2133   1.0000 0.27500  0.72500  0.02500  Biso   1.000  Al
  Al2134   1.0000 0.27500  0.77500  0.00000  Biso   1.000  Al
  Al2135   1.0000 0.22500  0.72500  0.05000  Biso   1.000  Al
  Al2136   1.0000 0.22500  0.77500  0.07500  Biso   1.000  Al
  Al2137   1.0000 0.27500  0.72500  0.07500  Biso   1.000  Al
  Al2138   1.0000 0.27500  0.77500  0.05000  Biso   1.000  Al
  Al2139   1.0000 0.22500  0.72500  0.10000  Biso   1.000  Al
  Al2140   1.0000 0.22500  0.77500  0.12500  Biso   1.000  Al
  Al2141   1.0000 0.27500  0.72500  0.12500  Biso   1.000  Al
  Al2142   1.0000 0.27500  0.77500  0.10000  Biso   1.000  Al
  Al2143   1.0000 0.22500  0.72500  0.15000  Biso   1.000  Al
  Al2144   1.0000 0.22500  0.77500  0.17500  Biso   1.000  Al
  Al2145   1.0000 0.27500  0.72500  0.17500  Biso   1.000  Al
  Al2146   1.0000 0.27500  0.77500  0.15000  Biso   1.000  Al
  Al2147   1.0000 0.22500  0.72500  0.20000  Biso   1.000  Al
  Al2148   1.0000 0.22500  0.77500  0.22500  Biso   1.000  Al
  Al2149   1.0000 0.27500  0.72500  0.22500  Biso   1.000  Al
  Al2150   1.0000 0.27500  0.77500  0.20000  Biso   1.000  Al
  Al2151   1.0000 0.22500  0.72500  0.25000  Biso   1.000  Al
  Al2152   1.0000 0.22500  0.77500  0.27500  Biso   1.000  Al
  Al2153   1.0000 0.27500  0.72500  0.27500  Biso   1.000  Al
  Al2154   1.0000 0.27500  0.77500  0.25000  Biso   1.000  Al
  Al2155   1.0000 0.22500  0.72500  0.30000  Biso   1.000  Al
  Al2156   1.0000 0.22500  0.77500  0.32500  Biso   1.000  Al
  Al2157   1.0000 0.27500  0.72500  0.32500  Biso   1.000  Al
  Al2158   1.0000 0.27500  0.77500  0.30000  Biso   1.000  Al
  Al2159   1.0000 0.22500  0.72500  0.35000  Biso   1.000  Al
  Al2160   1.0000 0.22500  0.77500  0.37500  Biso   1.000  Al
  Al2161   1.0000 0.27500  0.72500  0.37500  Biso   1.000  Al
  Al2162   1.0000 0.27500  0.77500  0.35000  Biso   1.000  Al
  Al2163   1.0000 0.22500  0.72500  0.40000  Biso   1.000  Al
  Al2164   1.0000 0.22500  0.77500  0.42500  Biso   1.000  Al
  Al2165   1.0000 0.27500  0.72500  0.42500  Biso   1.000  Al
  Al2166   1.0000 0.27500  0.77500  0.40000  Biso   1.000  Al
  Al2167   1.0000 0.22500  0.72500  0.45000  Biso   1.000  Al
  Al2168   1.0000 0.22500  0.77500  0.47500  Biso   1.000  Al
  Al2169   1.0000 0.27500  0.72500  0.47500  Biso   1.000  Al
  Al2170   1.0000 0.27500  0.77500  0.45000  Biso   1.000  Al
  Al2171   1.0000 0.22500  0.72500  0.50000  Biso   1.000  Al
  Al2172   1.0000 0.22500  0.77500  0.52500  Biso   1.000  Al
  Al2173   1.0000 0.27500  0.72500  0.52500  Biso   1.000  Al
  Al2174   1.0000 0.27500  0.77500  0.50000  Biso   1.000  Al
  Al2175   1.0000 0.22500  0.72500  0.55000  Biso   1.000  Al
  Al2176   1.0000 0.22500  0.77500  0.57500  Biso   1.000  Al
  Al2177   1.0000 0.27500  0.72500  0.57500  Biso   1.000  Al
  Al2178   1.0000 0.27500  0.77500  0.55000  Biso   1.000  Al
  Al2179   1.0000 0.22500  0.72500  0.60000  Biso   1.000  Al
  Al2180   1.0000 0.22500  0.77500  0.62500  Biso   1.000  Al
  Al2181   1.0000 0.27500  0.72500  0.62500  Biso   1.000  Al
  Al2182   1.0000 0.27500  0.77500  0.60000  Biso   1.000  Al
  Al2183   1.0000 0.22500  0.72500  0.65000  Biso   1.000  Al
  Al2184   1.0000 0.22500  0.77500  0.67500  Biso   1.000  Al
  Al2185   1.0000 0.27500  0.72500  0.67500  Biso   1.000  Al
  Al2186   1.0000 0.27500  0.77500  0.65000  Biso   1.000  Al
  Al2187   1.0000 0.22500  0.72500  0.70000  Biso   1.000  Al
  Al2188   1.0000 0.22500  0.77500  0.72500  Biso   1.000  Al
  Al2189   1.0000 0.27500  0.72500  0.72500  Biso   1.000  Al
  Al2190   1.0000 0.27500  0.77500  0.70000  Biso   1.000  Al
  Al2191   1.0000 0.22500  0.72500  0.75000  Biso   1.000  Al
  Al2192   1.0000 0.22500  0.77500  0.77500  Biso   1.000  Al
  Al2193   1.0000 0.27500  0.72500  0.77500  Biso   1.000  Al
  Al2194   1.0000 0.27500  0.77500  0.75000  Biso   1.000  Al
  Al2195   1.0000 0.22500  0.72500  0.80000  Biso   1.000  Al
  Al2196   1.0000 0.22500  0.77500  0.82500  Biso   1.000  Al
  Al2197   1.0000 0.27500  0.72500  0.82500  Biso   1.000  Al
  Al2198   1.0000 0.27500  0.77500  0.80000  Biso   1.000  Al
  Al2199   1.0000 0.22500  0.72500  0.85000  Biso   1.000  Al
  Al2200   1.0000 0.22500  0.77500  0.87500  Biso   1.000  Al
  Al2201   1.0000 0.27500  0.72500  0.87500  Biso   1.000  Al
  Al2202   1.0000 0.27500  0.77500  0.85000  Biso   1.000  Al
  Al2203   1.0000 0.22500  0.72500  0.90000  Biso   1.000  Al
  Al2204   1.0000 0.22500  0.77500  0.92500  Biso   1.000  Al
  Al2205   1.0000 0.27500  0.72500  0.92500  Biso   1.000  Al
  Al2206   1.0000 0.27500  0.77500  0.90000  Biso   1.000  Al
  Al2207   1.0000 0.22500  0.72500  0.95000  Biso   1.000  Al
  Al2208   1.0000 0.22500  0.77500  0.97500  Biso   1.000  Al
  Al2209   1.0000 0.27500  0.72500  0.97500  Biso   1.000  Al
  Al2210   1.0000 0.27500  0.77500  0.95000  Biso   1.000  Al
  Al2211   1.0000 0.22500  0.82500  0.00000  Biso   1.000  Al
  Al2212   1.0000 0.22500  0.87500  0.02500  Biso   1.000  Al
  Al2213   1.0000 0.27500  0.82500  0.02500  Biso   1.000  Al
  Al2214   1.0000 0.27500  0.87500  0.00000  Biso   1.000  Al
  Al2215   1.0000 0.22500  0.82500  0.05000  Biso   1.000  Al
  Al2216   1.0000 0.22500  0.87500  0.07500  Biso   1.000  Al
  Al2217   1.0000 0.27500  0.82500  0.07500  Biso   1.000  Al
  Al2218   1.0000 0.27500  0.87500  0.05000  Biso   1.000  Al
  Al2219   1.0000 0.22500  0.82500  0.10000  Biso   1.000  Al
  Al2220   1.0000 0.22500  0.87500  0.12500  Biso   1.000  Al
  Al2221   1.0000 0.27500  0.82500  0.12500  Biso   1.000  Al
  Al2222   1.0000 0.27500  0.87500  0.10000  Biso   1.000  Al
  Al2223   1.0000 0.22500  0.82500  0.15000  Biso   1.000  Al
  Al2224   1.0000 0.22500  0.87500  0.17500  Biso   1.000  Al
  Al2225   1.0000 0.27500  0.82500  0.17500  Biso   1.000  Al
  Al2226   1.0000 0.27500  0.87500  0.15000  Biso   1.000  Al
  Al2227   1.0000 0.22500  0.82500  0.20000  Biso   1.000  Al
  Al2228   1.0000 0.22500  0.87500  0.22500  Biso   1.000  Al
  Al2229   1.0000 0.27500  0.82500  0.22500  Biso   1.000  Al
  Al2230   1.0000 0.27500  0.87500  0.20000  Biso   1.000  Al
  Al2231   1.0000 0.22500  0.82500  0.25000  Biso   1.000  Al
  Al2232   1.0000 0.22500  0.87500  0.27500  Biso   1.000  Al
  Al2233   1.0000 0.27500  0.82500  0.27500  Biso   1.000  Al
  Al2234   1.0000 0.27500  0.87500  0.25000  Biso   1.000  Al
  Al2235   1.0000 0.22500  0.82500  0.30000  Biso   1.000  Al
  Al2236   1.0000 0.22500  0.87500  0.32500  Biso   1.000  Al
  Al2237   1.0000 0.27500  0.82500  0.32500  Biso   1.000  Al
  Al2238   1.0000 0.27500  0.87500  0.30000  Biso   1.000  Al
  Al2239   1.0000 0.22500  0.82500  0.35000  Biso   1.000  Al
  Al2240   1.0000 0.22500  0.87500  0.37500  Biso   1.000  Al
  Al2241   1.0000 0.27500  0.82500  0.37500  Biso   1.000  Al
  Al2242   1.0000 0.27500  0.87500  0.35000  Biso   1.000  Al
  Al2243   1.0000 0.22500  0.82500  0.40000  Biso   1.000  Al
  Al2244   1.0000 0.22500  0.87500  0.42500  Biso   1.000  Al
  Al2245   1.0000 0.27500  0.82500  0.42500  Biso   1.000  Al
  Al2246   1.0000 0.27500  0.87500  0.40000  Biso   1.000  Al
  Al2247   1.0000 0.22500  0.82500  0.45000  Biso   1.000  Al
  Al2248   1.0000 0.22500  0.87500  0.47500  Biso   1.000  Al
  Al2249   1.0000 0.27500  0.82500  0.47500  Biso   1.000  Al
  Al2250   1.0000 0.27500  0.87500  0.45000  Biso   1.000  Al
  Al2251   1.0000 0.22500  0.82500  0.50000  Biso   1.000  Al
  Al2252   1.0000 0.22500  0.87500  0.52500  Biso   1.000  Al
  Al2253   1.0000 0.27500  0.82500  0.52500  Biso   1.000  Al
  Al2254   1.0000 0.27500  0.87500  0.50000  Biso   1.000  Al
  Al2255   1.0000 0.22500  0.82500  0.55000  Biso   1.000  Al
  Al2256   1.0000 0.22500  0.87500  0.57500  Biso   1.000  Al
  Al2257   1.0000 0.27500  0.82500  0.57500  Biso   1.000  Al
  Al2258   1.0000 0.27500  0.87500  0.55000  Biso   1.000  Al
  Al2259   1.0000 0.22500  0.82500  0.60000  Biso   1.000  Al
  Al2260   1.0000 0.22500  0.87500  0.62500  Biso   1.000  Al
  Al2261   1.0000 0.27500  0.82500  0.62500  Biso   1.000  Al
  Al2262   1.0000 0.27500  0.87500  0.60000  Biso   1.000  Al
  Al2263   1.0000 0.22500  0.82500  0.65000  Biso   1.000  Al
  Al2264   1.0000 0.22500  0.87500  0.67500  Biso   1.000  Al
  Al2265   1.0000 0.27500  0.82500  0.67500  Biso   1.000  Al
  Al2266   1.0000 0.27500  0.87500  0.65000  Biso   1.000  Al
  Al2267   1.0000 0.22500  0.82500  0.70000  Biso   1.000  Al
  Al2268   1.0000 0.22500  0.87500  0.72500  Biso   1.000  Al
  Al2269   1.0000 0.27500  0.82500  0.72500  Biso   1.000  Al
  Al2270   1.0000 0.27500  0.87500  0.70000  Biso   1.000  Al
  Al2271   1.0000 0.22500  0.82500  0.75000  Biso   1.000  Al
  Al2272   1.0000 0.22500  0.87500  0.77500  Biso   1.000  Al
  Al2273   1.0000 0.27500  0.82500  0.77500  Biso   1.000  Al
  Al2274   1.0000 0.27500  0.87500  0.75000  Biso   1.000  Al
  Al2275   1.0000 0.22500  0.82500  0.80000  Biso   1.000  Al
  Al2276   1.0000 0.22500  0.87500  0.82500  Biso   1.000  Al
  Al2277   1.0000 0.27500  0.82500  0.82500  Biso   1.000  Al
  Al2278   1.0000 0.27500  0.87500  0.80000  Biso   1.000  Al
  Al2279   1.0000 0.22500  0.82500  0.85000  Biso   1.000  Al
  Al2280   1.0000 0.22500  0.87500  0.87500  Biso   1.000  Al
  Al2281   1.0000 0.27500  0.82500  0.87500  Biso   1.000  Al
  Al2282   1.0000 0.27500  0.87500  0.85000  Biso   1.000  Al
  Al2283   1.0000 0.22500  0.82500  0.90000  Biso   1.000  Al
  Al2284   1.0000 0.22500  0.87500  0.92500  Biso   1.000  Al
  Al2285   1.0000 0.27500  0.82500  0.92500  Biso   1.000  Al
  Al2286   1.0000 0.27500  0.87500  0.90000  Biso   1.000  Al
  Al2287   1.0000 0.22500  0.82500  0.95000  Biso   1.000  Al
  Al2288   1.0000 0.22500  0.87500  0.97500  Biso   1.000  Al
  Al2289   1.0000 0.27500  0.82500  0.97500  Biso   1.000  Al
  Al2290   1.0000 0.27500  0.87500  0.95000  Biso   1.000  Al
  Al2291   1.0000 0.22500  0.92500  0.00000  Biso   1.000  Al
  Al2292   1.0000 0.22500  0.97500  0.02500  Biso   1.000  Al
  Al2293   1.0000 0.27500  0.92500  0.02500  Biso   1.000  Al
  Al2294   1.0000 0.27500  0.97500  0.00000  Biso   1.000  Al
  Al2295   1.0000 0.22500  0.92500  0.05000  Biso   1.000  Al
  Al2296   1.0000 0.22500  0.97500  0.07500  Biso   1.000  Al
  Al2297   1.0000 0.27500  0.92500  0.07500  Biso   1.000  Al
  Al2298   1.0000 0.27500  0.97500  0.05000  Biso   1.000  Al
  Al2299   1.0000 0.22500  0.92500  0.10000  Biso   1.000  Al
  Al2300   1.0000 0.22500  0.97500  0.12500  Biso   1.000  Al
  Al2301   1.0000 0.27500  0.92500  0.12500  Biso   1.000  Al
  Al2302   1.0000 0.27500  0.97500  0.10000  Biso   1.000  Al
  Al2303   1.0000 0.22500  0.92500  0.15000  Biso   1.000  Al
  Al2304   1.0000 0.22500  0.97500  0.17500  Biso   1.000  Al
  Al2305   1.0000 0.27500  0.92500  0.17500  Biso   1.000  Al
  Al2306   1.0000 0.27500  0.97500  0.15000  Biso   1.000  Al
  Al2307   1.0000 0.22500  0.92500  0.20000  Biso   1.000  Al
  Al2308   1.0000 0.22500  0.97500  0.22500  Biso   1.000  Al
  Al2309   1.0000 0.27500  0.92500  0.22500  Biso   1.000  Al
  Al2310   1.0000 0.27500  0.97500  0.20000  Biso   1.000  Al
  Al2311   1.0000 0.22500  0.92500  0.25000  Biso   1.000  Al
  Al2312   1.0000 0.22500  0.97500  0.27500  Biso   1.000  Al
  Al2313   1.0000 0.27500  0.92500  0.27500  Biso   1.000  Al
  Al2314   1.0000 0.27500  0.97500  0.25000  Biso   1.000  Al
  Al2315   1.0000 0.22500  0.92500  0.30000  Biso   1.000  Al
  Al2316   1.0000 0.22500  0.97500  0.32500  Biso   1.000  Al
  Al2317   1.0000 0.27500  0.92500  0.32500  Biso   1.000  Al
  Al2318   1.0000 0.27500  0.97500  0.30000  Biso   1.000  Al
  Al2319   1.0000 0.22500  0.92500  0.35000  Biso   1.000  Al
  Al2320   1.0000 0.22500  0.97500  0.37500  Biso   1.000  Al
  Al2321   1.0000 0.27500  0.92500  0.37500  Biso   1.000  Al
  Al2322   1.0000 0.27500  0.97500  0.35000  Biso   1.000  Al
  Al2323   1.0000 0.22500  0.92500  0.40000  Biso   1.000  Al
  Al2324   1.0000 0.22500  0.97500  0.42500  Biso   1.000  Al
  Al2325   1.0000 0.27500  0.92500  0.42500  Biso   1.000  Al
  Al2326   1.0000 0.27500  0.97500  0.40000  Biso   1.000  Al
  Al2327   1.0000 0.22500  0.92500  0.45000  Biso   1.000  Al
  Al2328   1.0000 0.22500  0.97500  0.47500  Biso   1.000  Al
  Al2329   1.0000 0.27500  0.92500  0.47500  Biso   1.000  Al
  Al2330   1.0000 0.27500  0.97500  0.45000  Biso   1.000  Al
  Al2331   1.0000 0.22500  0.92500  0.50000  Biso   1.000  Al
  Al2332   1.0000 0.22500  0.97500  0.52500  Biso   1.000  Al
  Al2333   1.0000 0.27500  0.92500  0.52500  Biso   1.000  Al
  Al2334   1.0000 0.27500  0.97500  0.50000  Biso   1.000  Al
  Al2335   1.0000 0.22500  0.92500  0.55000  Biso   1.000  Al
  Al2336   1.0000 0.22500  0.97500  0.57500  Biso   1.000  Al
  Al2337   1.0000 0.27500  0.92500  0.57500  Biso   1.000  Al
  Al2338   1.0000 0.27500  0.97500  0.55000  Biso   1.000  Al
  Al2339   1.0000 0.22500  0.92500  0.60000  Biso   1.000  Al
  Al2340   1.0000 0.22500  0.97500  0.62500  Biso   1.000  Al
  Al2341   1.0000 0.27500  0.92500  0.62500  Biso   1.000  Al
  Al2342   1.0000 0.27500  0.97500  0.60000  Biso   1.000  Al
  Al2343   1.0000 0.22500  0.92500  0.65000  Biso   1.000  Al
  Al2344   1.0000 0.22500  0.97500  0.67500  Biso   1.000  Al
  Al2345   1.0000 0.27500  0.92500  0.67500  Biso   1.000  Al
  Al2346   1.0000 0.27500  0.97500  0.65000  Biso   1.000  Al
  Al2347   1.0000 0.22500  0.92500  0.70000  Biso   1.000  Al
  Al2348   1.0000 0.22500  0.97500  0.72500  Biso   1.000  Al
  Al2349   1.0000 0.27500  0.92500  0.72500  Biso   1.000  Al
  Al2350   1.0000 0.27500  0.97500  0.70000  Biso   1.000  Al
  Al2351   1.0000 0.22500  0.92500  0.75000  Biso   1.000  Al
  Al2352   1.0000 0.22500  0.97500  0.77500  Biso   1.000  Al
  Al2353   1.0000 0.27500  0.92500  0.77500  Biso   1.000  Al
  Al2354   1.0000 0.27500  0.97500  0.75000  Biso   1.000  Al
  Al2355   1.0000 0.22500  0.92500  0.80000  Biso   1.000  Al
  Al2356   1.0000 0.22500  0.97500  0.82500  Biso   1.000  Al
  Al2357   1.0000 0.27500  0.92500  0.82500  Biso   1.000  Al
  Al2358   1.0000 0.27500  0.97500  0.80000  Biso   1.000  Al
  Al2359   1.0000 0.22500  0.92500  0.85000  Biso   1.000  Al
  Al2360   1.0000 0.22500  0.97500  0.87500  Biso   1.000  Al
  Al2361   1.0000 0.27500  0.92500  0.87500  Biso   1.000  Al
  Al2362   1.0000 0.27500  0.97500  0.85000  Biso   1.000  Al
  Al2363   1.0000 0.22500  0.92500  0.90000  Biso   1.000  Al
  Al2364   1.0000 0.22500  0.97500  0.92500  Biso   1.000  Al
  Al2365   1.0000 0.27500  0.92500  0.92500  Biso   1.000  Al
  Al2366   1.0000 0.27500  0.97500  0.90000  Biso   1.000  Al
  Al2367   1.0000 0.22500  0.92500  0.95000  Biso   1.000  Al
  Al2368   1.0000 0.22500  0.97500  0.97500  Biso   1.000  Al
  Al2369   1.0000 0.27500  0.92500  0.97500  Biso   1.000  Al
  Al2370   1.0000 0.27500  0.97500  0.95000  Biso   1.000  Al
  Al2371   1.0000 0.32500  0.02500  0.00000  Biso   1.000  Al
  Al2372   1.0000 0.32500  0.07500  0.02500  Biso   1.000  Al
  Al2373   1.0000 0.37500  0.02500  0.02500  Biso   1.000  Al
  Al2374   1.0000 0.37500  0.07500  0.00000  Biso   1.000  Al
  Al2375   1.0000 0.32500  0.02500  0.05000  Biso   1.000  Al
  Al2376   1.0000 0.32500  0.07500  0.07500  Biso   1.000  Al
  Al2377   1.0000 0.37500  0.02500  0.07500  Biso   1.000  Al
  Al2378   1.0000 0.37500  0.07500  0.05000  Biso   1.000  Al
  Al2379   1.0000 0.32500  0.02500  0.10000  Biso   1.000  Al
  Al2380   1.0000 0.32500  0.07500  0.12500  Biso   1.000  Al
  Al2381   1.0000 0.37500  0.02500  0.12500  Biso   1.000  Al
  Al2382   1.0000 0.37500  0.07500  0.10000  Biso   1.000  Al
  Al2383   1.0000 0.32500  0.02500  0.15000  Biso   1.000  Al
  Al2384   1.0000 0.32500  0.07500  0.17500  Biso   1.000  Al
  Al2385   1.0000 0.37500  0.02500  0.17500  Biso   1.000  Al
  Al2386   1.0000 0.37500  0.07500  0.15000  Biso   1.000  Al
  Al2387   1.0000 0.32500  0.02500  0.20000  Biso   1.000  Al
  Al2388   1.0000 0.32500  0.07500  0.22500  Biso   1.000  Al
  Al2389   1.0000 0.37500  0.02500  0.22500  Biso   1.000  Al
  Al2390   1.0000 0.37500  0.07500  0.20000  Biso   1.000  Al
  Al2391   1.0000 0.32500  0.02500  0.25000  Biso   1.000  Al
  Al2392   1.0000 0.32500  0.07500  0.27500  Biso   1.000  Al
  Al2393   1.0000 0.37500  0.02500  0.27500  Biso   1.000  Al
  Al2394   1.0000 0.37500  0.07500  0.25000  Biso   1.000  Al
  Al2395   1.0000 0.32500  0.02500  0.30000  Biso   1.000  Al
  Al2396   1.0000 0.32500  0.07500  0.32500  Biso   1.000  Al
  Al2397   1.0000 0.37500  0.02500  0.32500  Biso   1.000  Al
  Al2398   1.0000 0.37500  0.07500  0.30000  Biso   1.000  Al
  Al2399   1.0000 0.32500  0.02500  0.35000  Biso   1.000  Al
  Al2400   1.0000 0.32500  0.07500  0.37500  Biso   1.000  Al
  Al2401   1.0000 0.37500  0.02500  0.37500  Biso   1.000  Al
  Al2402   1.0000 0.37500  0.07500  0.35000  Biso   1.000  Al
  Al2403   1.0000 0.32500  0.02500  0.40000  Biso   1.000  Al
  Al2404   1.0000 0.32500  0.07500  0.42500  Biso   1.000  Al
  Al2405   1.0000 0.37500  0.02500  0.42500  Biso   1.000  Al
  Al2406   1.0000 0.37500  0.07500  0.40000  Biso   1.000  Al
  Al2407   1.0000 0.32500  0.02500  0.45000  Biso   1.000  Al
  Al2408   1.0000 0.32500  0.07500  0.47500  Biso   1.000  Al
  Al2409   1.0000 0.37500  0.02500  0.47500  Biso   1.000  Al
  Al2410   1.0000 0.37500  0.07500  0.45000  Biso   1.000  Al
  Al2411   1.0000 0.32500  0.02500  0.50000  Biso   1.000  Al
  Al2412   1.0000 0.32500  0.07500  0.52500  Biso   1.000  Al
  Al2413   1.0000 0.37500  0.02500  0.52500  Biso   1.000  Al
  Al2414   1.0000 0.37500  0.07500  0.50000  Biso   1.000  Al
  Al2415   1.0000 0.32500  0.02500  0.55000  Biso   1.000  Al
  Al2416   1.0000 0.32500  0.07500  0.57500  Biso   1.000  Al
  Al2417   1.0000 0.37500  0.02500  0.57500  Biso   1.000  Al
  Al2418   1.0000 0.37500  0.07500  0.55000  Biso   1.000  Al
  Al2419   1.0000 0.32500  0.02500  0.60000  Biso   1.000  Al
  Al2420   1.0000 0.32500  0.07500  0.62500  Biso   1.000  Al
  Al2421   1.0000 0.37500  0.02500  0.62500  Biso   1.000  Al
  Al2422   1.0000 0.37500  0.07500  0.60000  Biso   1.000  Al
  Al2423   1.0000 0.32500  0.02500  0.65000  Biso   1.000  Al
  Al2424   1.0000 0.32500  0.07500  0.67500  Biso   1.000  Al
  Al2425   1.0000 0.37500  0.02500  0.67500  Biso   1.000  Al
  Al2426   1.0000 0.37500  0.07500  0.65000  Biso   1.000  Al
  Al2427   1.0000 0.32500  0.02500  0.70000  Biso   1.000  Al
  Al2428   1.0000 0.32500  0.07500  0.72500  Biso   1.000  Al
  Al2429   1.0000 0.37500  0.02500  0.72500  Biso   1.000  Al
  Al2430   1.0000 0.37500  0.07500  0.70000  Biso   1.000  Al
  Al2431   1.0000 0.32500  0.02500  0.75000  Biso   1.000  Al
  Al2432   1.0000 0.32500  0.07500  0.77500  Biso   1.000  Al
  Al2433   1.0000 0.37500  0.02500  0.77500  Biso   1.000  Al
  Al2434   1.0000 0.37500  0.07500  0.75000  Biso   1.000  Al
  Al2435   1.0000 0.32500  0.02500  0.80000  Biso   1.000  Al
  Al2436   1.0000 0.32500  0.07500  0.82500  Biso   1.000  Al
  Al2437   1.0000 0.37500  0.02500  0.82500  Biso   1.000  Al
  Al2438   1.0000 0.37500  0.07500  0.80000  Biso   1.000  Al
  Al2439   1.0000 0.32500  0.02500  0.85000  Biso   1.000  Al
  Al2440   1.0000 0.32500  0.07500  0.87500  Biso   1.000  Al
  Al2441   1.0000 0.37500  0.02500  0.87500  Biso   1.000  Al
  Al2442   1.0000 0.37500  0.07500  0.85000  Biso   1.000  Al
  Al2443   1.0000 0.32500  0.02500  0.90000  Biso   1.000  Al
  Al2444   1.0000 0.32500  0.07500  0.92500  Biso   1.000  Al
  Al2445   1.0000 0.37500  0.02500  0.92500  Biso   1.000  Al
  Al2446   1.0000 0.37500  0.07500  0.90000  Biso   1.000  Al
  Al2447   1.0000 0.32500  0.02500  0.95000  Biso   1.000  Al
  Al2448   1.0000 0.32500  0.07500  0.97500  Biso   1.000  Al
  Al2449   1.0000 0.37500  0.02500  0.97500  Biso   1.000  Al
  Al2450   1.0000 0.37500  0.07500  0.95000  Biso   1.000  Al
  Al2451   1.0000 0.32500  0.12500  0.00000  Biso   1.000  Al
  Al2452   1.0000 0.32500  0.17500  0.02500  Biso   1.000  Al
  Al2453   1.0000 0.37500  0.12500  0.02500  Biso   1.000  Al
  Al2454   1.0000 0.37500  0.17500  0.00000  Biso   1.000  Al
  Al2455   1.0000 0.32500  0.12500  0.05000  Biso   1.000  Al
  Al2456   1.0000 0.32500  0.17500  0.07500  Biso   1.000  Al
  Al2457   1.0000 0.37500  0.12500  0.07500  Biso   1.000  Al
  Al2458   1.0000 0.37500  0.17500  0.05000  Biso   1.000  Al
  Al2459   1.0000 0.32500  0.12500  0.10000  Biso   1.000  Al
  Al2460   1.0000 0.32500  0.17500  0.12500  Biso   1.000  Al
  Al2461   1.0000 0.37500  0.12500  0.12500  Biso   1.000  Al
  Al2462   1.0000 0.37500  0.17500  0.10000  Biso   1.000  Al
  Al2463   1.0000 0.32500  0.12500  0.15000  Biso   1.000  Al
  Al2464   1.0000 0.32500  0.17500  0.17500  Biso   1.000  Al
  Al2465   1.0000 0.37500  0.12500  0.17500  Biso   1.000  Al
  Al2466   1.0000 0.37500  0.17500  0.15000  Biso   1.000  Al
  Al2467   1.0000 0.32500  0.12500  0.20000  Biso   1.000  Al
  Al2468   1.0000 0.32500  0.17500  0.22500  Biso   1.000  Al
  Al2469   1.0000 0.37500  0.12500  0.22500  Biso   1.000  Al
  Al2470   1.0000 0.37500  0.17500  0.20000  Biso   1.000  Al
  Al2471   1.0000 0.32500  0.12500  0.25000  Biso   1.000  Al
  Al2472   1.0000 0.32500  0.17500  0.27500  Biso   1.000  Al
  Al2473   1.0000 0.37500  0.12500  0.27500  Biso   1.000  Al
  Al2474   1.0000 0.37500  0.17500  0.25000  Biso   1.000  Al
  Al2475   1.0000 0.32500  0.12500  0.30000  Biso   1.000  Al
  Al2476   1.0000 0.32500  0.17500  0.32500  Biso   1.000  Al
  Al2477   1.0000 0.37500  0.12500  0.32500  Biso   1.000  Al
  Al2478   1.0000 0.37500  0.17500  0.30000  Biso   1.000  Al
  Al2479   1.0000 0.32500  0.12500  0.35000  Biso   1.000  Al
  Al2480   1.0000 0.32500  0.17500  0.37500  Biso   1.000  Al
  Al2481   1.0000 0.37500  0.12500  0.37500  Biso   1.000  Al
  Al2482   1.0000 0.37500  0.17500  0.35000  Biso   1.000  Al
  Al2483   1.0000 0.32500  0.12500  0.40000  Biso   1.000  Al
  Al2484   1.0000 0.32500  0.17500  0.42500  Biso   1.000  Al
  Al2485   1.0000 0.37500  0.12500  0.42500  Biso   1.000  Al
  Al2486   1.0000 0.37500  0.17500  0.40000  Biso   1.000  Al
  Al2487   1.0000 0.32500  0.12500  0.45000  Biso   1.000  Al
  Al2488   1.0000 0.32500  0.17500  0.47500  Biso   1.000  Al
  Al2489   1.0000 0.37500  0.12500  0.47500  Biso   1.000  Al
  Al2490   1.0000 0.37500  0.17500  0.45000  Biso   1.000  Al
  Al2491   1.0000 0.32500  0.12500  0.50000  Biso   1.000  Al
  Al2492   1.0000 0.32500  0.17500  0.52500  Biso   1.000  Al
  Al2493   1.0000 0.37500  0.12500  0.52500  Biso   1.000  Al
  Al2494   1.0000 0.37500  0.17500  0.50000  Biso   1.000  Al
  Al2495   1.0000 0.32500  0.12500  0.55000  Biso   1.000  Al
  Al2496   1.0000 0.32500  0.17500  0.57500  Biso   1.000  Al
  Al2497   1.0000 0.37500  0.12500  0.57500  Biso   1.000  Al
  Al2498   1.0000 0.37500  0.17500  0.55000  Biso   1.000  Al
  Al2499   1.0000 0.32500  0.12500  0.60000  Biso   1.000  Al
  Al2500   1.0000 0.32500  0.17500  0.62500  Biso   1.000  Al
  Al2501   1.0000 0.37500  0.12500  0.62500  Biso   1.000  Al
  Al2502   1.0000 0.37500  0.17500  0.60000  Biso   1.000  Al
  Al2503   1.0000 0.32500  0.12500  0.65000  Biso   1.000  Al
  Al2504   1.0000 0.32500  0.17500  0.67500  Biso   1.000  Al
  Al2505   1.0000 0.37500  0.12500  0.67500  Biso   1.000  Al
  Al2506   1.0000 0.37500  0.17500  0.65000  Biso   1.000  Al
  Al2507   1.0000 0.32500  0.12500  0.70000  Biso   1.000  Al
  Al2508   1.0000 0.32500  0.17500  0.72500  Biso   1.000  Al
  Al2509   1.0000 0.37500  0.12500  0.72500  Biso   1.000  Al
  Al2510   1.0000 0.37500  0.17500  0.70000  Biso   1.000  Al
  Al2511   1.0000 0.32500  0.12500  0.75000  Biso   1.000  Al
  Al2512   1.0000 0.32500  0.17500  0.77500  Biso   1.000  Al
  Al2513   1.0000 0.37500  0.12500  0.77500  Biso   1.000  Al
  Al2514   1.0000 0.37500  0.17500  0.75000  Biso   1.000  Al
  Al2515   1.0000 0.32500  0.12500  0.80000  Biso   1.000  Al
  Al2516   1.0000 0.32500  0.17500  0.82500  Biso   1.000  Al
  Al2517   1.0000 0.37500  0.12500  0.82500  Biso   1.000  Al
  Al2518   1.0000 0.37500  0.17500  0.80000  Biso   1.000  Al
  Al2519   1.0000 0.32500  0.12500  0.85000  Biso   1.000  Al
  Al2520   1.0000 0.32500  0.17500  0.87500  Biso   1.000  Al
  Al2521   1.0000 0.37500  0.12500  0.87500  Biso   1.000  Al
  Al2522   1.0000 0.37500  0.17500  0.85000  Biso   1.000  Al
  Al2523   1.0000 0.32500  0.12500  0.90000  Biso   1.000  Al
  Al2524   1.0000 0.32500  0.17500  0.92500  Biso   1.000  Al
  Al2525   1.0000 0.37500  0.12500  0.92500  Biso   1.000  Al
  Al2526   1.0000 0.37500  0.17500  0.90000  Biso   1.000  Al
  Al2527   1.0000 0.32500  0.12500  0.95000  Biso   1.000  Al
  Al2528   1.0000 0.32500  0.17500  0.97500  Biso   1.000  Al
  Al2529   1.0000 0.37500  0.12500  0.97500  Biso   1.000  Al
  Al2530   1.0000 0.37500  0.17500  0.95000  Biso   1.000  Al
  Al2531   1.0000 0.32500  0.22500  0.00000  Biso   1.000  Al
  Al2532   1.0000 0.32500  0.27500  0.02500  Biso   1.000  Al
  Al2533   1.0000 0.37500  0.22500  0.02500  Biso   1.000  Al
  Al2534   1.0000 0.37500  0.27500  0.00000  Biso   1.000  Al
  Al2535   1.0000 0.32500  0.22500  0.05000  Biso   1.000  Al
  Al2536   1.0000 0.32500  0.27500  0.07500  Biso   1.000  Al
  Al2537   1.0000 0.37500  0.22500  0.07500  Biso   1.000  Al
  Al2538   1.0000 0.37500  0.27500  0.05000  Biso   1.000  Al
  Al2539   1.0000 0.32500  0.22500  0.10000  Biso   1.000  Al
  Al2540   1.0000 0.32500  0.27500  0.12500  Biso   1.000  Al
  Al2541   1.0000 0.37500  0.22500  0.12500  Biso   1.000  Al
  Al2542   1.0000 0.37500  0.27500  0.10000  Biso   1.000  Al
  Al2543   1.0000 0.32500  0.22500  0.15000  Biso   1.000  Al
  Al2544   1.0000 0.32500  0.27500  0.17500  Biso   1.000  Al
  Al2545   1.0000 0.37500  0.22500  0.17500  Biso   1.000  Al
  Al2546   1.0000 0.37500  0.27500  0.15000  Biso   1.000  Al
  Al2547   1.0000 0.32500  0.22500  0.20000  Biso   1.000  Al
  Al2548   1.0000 0.32500  0.27500  0.22500  Biso   1.000  Al
  Al2549   1.0000 0.37500  0.22500  0.22500  Biso   1.000  Al
  Al2550   1.0000 0.37500  0.27500  0.20000  Biso   1.000  Al
  Al2551   1.0000 0.32500  0.22500  0.25000  Biso   1.000  Al
  Al2552   1.0000 0.32500  0.27500  0.27500  Biso   1.000  Al
  Al2553   1.0000 0.37500  0.22500  0.27500  Biso   1.000  Al
  Al2554   1.0000 0.37500  0.27500  0.25000  Biso   1.000  Al
  Al2555   1.0000 0.32500  0.22500  0.30000  Biso   1.000  Al
  Al2556   1.0000 0.32500  0.27500  0.32500  Biso   1.000  Al
  Al2557   1.0000 0.37500  0.22500  0.32500  Biso   1.000  Al
  Al2558   1.0000 0.37500  0.27500  0.30000  Biso   1.000  Al
  Al2559   1.0000 0.32500  0.22500  0.35000  Biso   1.000  Al
  Al2560   1.0000 0.32500  0.27500  0.37500  Biso   1.000  Al
  Al2561   1.0000 0.37500  0.22500  0.37500  Biso   1.000  Al
  Al2562   1.0000 0.37500  0.27500  0.35000  Biso   1.000  Al
  Al2563   1.0000 0.32500  0.22500  0.40000  Biso   1.000  Al
  Al2564   1.0000 0.32500  0.27500  0.42500  Biso   1.000  Al
  Al2565   1.0000 0.37500  0.22500  0.42500  Biso   1.000  Al
  Al2566   1.0000 0.37500  0.27500  0.40000  Biso   1.000  Al
  Al2567   1.0000 0.32500  0.22500  0.45000  Biso   1.000  Al
  Al2568   1.0000 0.32500  0.27500  0.47500  Biso   1.000  Al
  Al2569   1.0000 0.37500  0.22500  0.47500  Biso   1.000  Al
  Al2570   1.0000 0.37500  0.27500  0.45000  Biso   1.000  Al
  Al2571   1.0000 0.32500  0.22500  0.50000  Biso   1.000  Al
  Al2572   1.0000 0.32500  0.27500  0.52500  Biso   1.000  Al
  Al2573   1.0000 0.37500  0.22500  0.52500  Biso   1.000  Al
  Al2574   1.0000 0.37500  0.27500  0.50000  Biso   1.000  Al
  Al2575   1.0000 0.32500  0.22500  0.55000  Biso   1.000  Al
  Al2576   1.0000 0.32500  0.27500  0.57500  Biso   1.000  Al
  Al2577   1.0000 0.37500  0.22500  0.57500  Biso   1.000  Al
  Al2578   1.0000 0.37500  0.27500  0.55000  Biso   1.000  Al
  Al2579   1.0000 0.32500  0.22500  0.60000  Biso   1.000  Al
  Al2580   1.0000 0.32500  0.27500  0.62500  Biso   1.000  Al
  Al2581   1.0000 0.37500  0.22500  0.62500  Biso   1.000  Al
  Al2582   1.0000 0.37500  0.27500  0.60000  Biso   1.000  Al
  Al2583   1.0000 0.32500  0.22500  0.65000  Biso   1.000  Al
  Al2584   1.0000 0.32500  0.27500  0.67500  Biso   1.000  Al
  Al2585   1.0000 0.37500  0.22500  0.67500  Biso   1.000  Al
  Al2586   1.0000 0.37500  0.27500  0.65000  Biso   1.000  Al
  Al2587   1.0000 0.32500  0.22500  0.70000  Biso   1.000  Al
  Al2588   1.0000 0.32500  0.27500  0.72500  Biso   1.000  Al
  Al2589   1.0000 0.37500  0.22500  0.72500  Biso   1.000  Al
  Al2590   1.0000 0.37500  0.27500  0.70000  Biso   1.000  Al
  Al2591   1.0000 0.32500  0.22500  0.75000  Biso   1.000  Al
  Al2592   1.0000 0.32500  0.27500  0.77500  Biso   1.000  Al
  Al2593   1.0000 0.37500  0.22500  0.77500  Biso   1.000  Al
  Al2594   1.0000 0.37500  0.27500  0.75000  Biso   1.000  Al
  Al2595   1.0000 0.32500  0.22500  0.80000  Biso   1.000  Al
  Al2596   1.0000 0.32500  0.27500  0.82500  Biso   1.000  Al
  Al2597   1.0000 0.37500  0.22500  0.82500  Biso   1.000  Al
  Al2598   1.0000 0.37500  0.27500  0.80000  Biso   1.000  Al
  Al2599   1.0000 0.32500  0.22500  0.85000  Biso   1.000  Al
  Al2600   1.0000 0.32500  0.27500  0.87500  Biso   1.000  Al
  Al2601   1.0000 0.37500  0.22500  0.87500  Biso   1.000  Al
  Al2602   1.0000 0.37500  0.27500  0.85000  Biso   1.000  Al
  Al2603   1.0000 0.32500  0.22500  0.90000  Biso   1.000  Al
  Al2604   1.0000 0.32500  0.27500  0.92500  Biso   1.000  Al
  Al2605   1.0000 0.37500  0.22500  0.92500  Biso   1.000  Al
  Al2606   1.0000 0.37500  0.27500  0.90000  Biso   1.000  Al
  Al2607   1.0000 0.32500  0.22500  0.95000  Biso   1.000  Al
  Al2608   1.0000 0.32500  0.27500  0.97500  Biso   1.000  Al
  Al2609   1.0000 0.37500  0.22500  0.97500  Biso   1.000  Al
  Al2610   1.0000 0.37500  0.27500  0.95000  Biso   1.000  Al
  Al2611   1.0000 0.32500  0.32500  0.00000  Biso   1.000  Al
  Al2612   1.0000 0.32500  0.37500  0.02500  Biso   1.000  Al
  Al2613   1.0000 0.37500  0.32500  0.02500  Biso   1.000  Al
  Al2614   1.0000 0.37500  0.37500  0.00000  Biso   1.000  Al
  Al2615   1.0000 0.32500  0.32500  0.05000  Biso   1.000  Al
  Al2616   1.0000 0.32500  0.37500  0.07500  Biso   1.000  Al
  Al2617   1.0000 0.37500  0.32500  0.07500  Biso   1.000  Al
  Al2618   1.0000 0.37500  0.37500  0.05000  Biso   1.000  Al
  Al2619   1.0000 0.32500  0.32500  0.10000  Biso   1.000  Al
  Al2620   1.0000 0.32500  0.37500  0.12500  Biso   1.000  Al
  Al2621   1.0000 0.37500  0.32500  0.12500  Biso   1.000  Al
  Al2622   1.0000 0.37500  0.37500  0.10000  Biso   1.000  Al
  Al2623   1.0000 0.32500  0.32500  0.15000  Biso   1.000  Al
  Al2624   1.0000 0.32500  0.37500  0.17500  Biso   1.000  Al
  Al2625   1.0000 0.37500  0.32500  0.17500  Biso   1.000  Al
  Al2626   1.0000 0.37500  0.37500  0.15000  Biso   1.000  Al
  Al2627   1.0000 0.32500  0.32500  0.20000  Biso   1.000  Al
  Al2628   1.0000 0.32500  0.37500  0.22500  Biso   1.000  Al
  Al2629   1.0000 0.37500  0.32500  0.22500  Biso   1.000  Al
  Al2630   1.0000 0.37500  0.37500  0.20000  Biso   1.000  Al
  Al2631   1.0000 0.32500  0.32500  0.25000  Biso   1.000  Al
  Al2632   1.0000 0.32500  0.37500  0.27500  Biso   1.000  Al
  Al2633   1.0000 0.37500  0.32500  0.27500  Biso   1.000  Al
  Al2634   1.0000 0.37500  0.37500  0.25000  Biso   1.000  Al
  Al2635   1.0000 0.32500  0.32500  0.30000  Biso   1.000  Al
  Al2636   1.0000 0.32500  0.37500  0.32500  Biso   1.000  Al
  Al2637   1.0000 0.37500  0.32500  0.32500  Biso   1.000  Al
  Al2638   1.0000 0.37500  0.37500  0.30000  Biso   1.000  Al
  Al2639   1.0000 0.32500  0.32500  0.35000  Biso   1.000  Al
  Al2640   1.0000 0.32500  0.37500  0.37500  Biso   1.000  Al
  Al2641   1.0000 0.37500  0.32500  0.37500  Biso   1.000  Al
  Al2642   1.0000 0.37500  0.37500  0.35000  Biso   1.000  Al
  Al2643   1.0000 0.32500  0.32500  0.40000  Biso   1.000  Al
  Al2644   1.0000 0.32500  0.37500  0.42500  Biso   1.000  Al
  Al2645   1.0000 0.37500  0.32500  0.42500  Biso   1.000  Al
  Al2646   1.0000 0.37500  0.37500  0.40000  Biso   1.000  Al
  Al2647   1.0000 0.32500  0.32500  0.45000  Biso   1.000  Al
  Al2648   1.0000 0.32500  0.37500  0.47500  Biso   1.000  Al
  Al2649   1.0000 0.37500  0.32500  0.47500  Biso   1.000  Al
  Al2650   1.0000 0.37500  0.37500  0.45000  Biso   1.000  Al
  Al2651   1.0000 0.32500  0.32500  0.50000  Biso   1.000  Al
  Al2652   1.0000 0.32500  0.37500  0.52500  Biso   1.000  Al
  Al2653   1.0000 0.37500  0.32500  0.52500  Biso   1.000  Al
  Al2654   1.0000 0.37500  0.37500  0.50000  Biso   1.000  Al
  Al2655   1.0000 0.32500  0.32500  0.55000  Biso   1.000  Al
  Al2656   1.0000 0.32500  0.37500  0.57500  Biso   1.000  Al
  Al2657   1.0000 0.37500  0.32500  0.57500  Biso   1.000  Al
  Al2658   1.0000 0.37500  0.37500  0.55000  Biso   1.000  Al
  Al2659   1.0000 0.32500  0.32500  0.60000  Biso   1.000  Al
  Al2660   1.0000 0.32500  0.37500  0.62500  Biso   1.000  Al
  Al2661   1.0000 0.37500  0.32500  0.62500  Biso   1.000  Al
  Al2662   1.0000 0.37500  0.37500  0.60000  Biso   1.000  Al
  Al2663   1.0000 0.32500  0.32500  0.65000  Biso   1.000  Al
  Al2664   1.0000 0.32500  0.37500  0.67500  Biso   1.000  Al
  Al2665   1.0000 0.37500  0.32500  0.67500  Biso   1.000  Al
  Al2666   1.0000 0.37500  0.37500  0.65000  Biso   1.000  Al
  Al2667   1.0000 0.32500  0.32500  0.70000  Biso   1.000  Al
  Al2668   1.0000 0.32500  0.37500  0.72500  Biso   1.000  Al
  Al2669   1.0000 0.37500  0.32500  0.72500  Biso   1.000  Al
  Al2670   1.0000 0.37500  0.37500  0.70000  Biso   1.000  Al
  Al2671   1.0000 0.32500  0.32500  0.75000  Biso   1.000  Al
  Al2672   1.0000 0.32500  0.37500  0.77500  Biso   1.000  Al
  Al2673   1.0000 0.37500  0.32500  0.77500  Biso   1.000  Al
  Al2674   1.0000 0.37500  0.37500  0.75000  Biso   1.000  Al
  Al2675   1.0000 0.32500  0.32500  0.80000  Biso   1.000  Al
  Al2676   1.0000 0.32500  0.37500  0.82500  Biso   1.000  Al
  Al2677   1.0000 0.37500  0.32500  0.82500  Biso   1.000  Al
  Al2678   1.0000 0.37500  0.37500  0.80000  Biso   1.000  Al
  Al2679   1.0000 0.32500  0.32500  0.85000  Biso   1.000  Al
  Al2680   1.0000 0.32500  0.37500  0.87500  Biso   1.000  Al
  Al2681   1.0000 0.37500  0.32500  0.87500  Biso   1.000  Al
  Al2682   1.0000 0.37500  0.37500  0.85000  Biso   1.000  Al
  Al2683   1.0000 0.32500  0.32500  0.90000  Biso   1.000  Al
  Al2684   1.0000 0.32500  0.37500  0.92500  Biso   1.000  Al
  Al2685   1.0000 0.37500  0.32500  0.92500  Biso   1.000  Al
  Al2686   1.0000 0.37500  0.37500  0.90000  Biso   1.000  Al
  Al2687   1.0000 0.32500  0.32500  0.95000  Biso   1.000  Al
  Al2688   1.0000 0.32500  0.37500  0.97500  Biso   1.000  Al
  Al2689   1.0000 0.37500  0.32500  0.97500  Biso   1.000  Al
  Al2690   1.0000 0.37500  0.37500  0.95000  Biso   1.000  Al
  Al2691   1.0000 0.32500  0.42500  0.00000  Biso   1.000  Al
  Al2692   1.0000 0.32500  0.47500  0.02500  Biso   1.000  Al
  Al2693   1.0000 0.37500  0.42500  0.02500  Biso   1.000  Al
  Al2694   1.0000 0.37500  0.47500  0.00000  Biso   1.000  Al
  Al2695   1.0000 0.32500  0.42500  0.05000  Biso   1.000  Al
  Al2696   1.0000 0.32500  0.47500  0.07500  Biso   1.000  Al
  Al2697   1.0000 0.37500  0.42500  0.07500  Biso   1.000  Al
  Al2698   1.0000 0.37500  0.47500  0.05000  Biso   1.000  Al
  Al2699   1.0000 0.32500  0.42500  0.10000  Biso   1.000  Al
  Al2700   1.0000 0.32500  0.47500  0.12500  Biso   1.000  Al
  Al2701   1.0000 0.37500  0.42500  0.12500  Biso   1.000  Al
  Al2702   1.0000 0.37500  0.47500  0.10000  Biso   1.000  Al
  Al2703   1.0000 0.32500  0.42500  0.15000  Biso   1.000  Al
  Al2704   1.0000 0.32500  0.47500  0.17500  Biso   1.000  Al
  Al2705   1.0000 0.37500  0.42500  0.17500  Biso   1.000  Al
  Al2706   1.0000 0.37500  0.47500  0.15000  Biso   1.000  Al
  Al2707   1.0000 0.32500  0.42500  0.20000  Biso   1.000  Al
  Al2708   1.0000 0.32500  0.47500  0.22500  Biso   1.000  Al
  Al2709   1.0000 0.37500  0.42500  0.22500  Biso   1.000  Al
  Al2710   1.0000 0.37500  0.47500  0.20000  Biso   1.000  Al
  Al2711   1.0000 0.32500  0.42500  0.25000  Biso   1.000  Al
  Al2712   1.0000 0.32500  0.47500  0.27500  Biso   1.000  Al
  Al2713   1.0000 0.37500  0.42500  0.27500  Biso   1.000  Al
  Al2714   1.0000 0.37500  0.47500  0.25000  Biso   1.000  Al
  Al2715   1.0000 0.32500  0.42500  0.30000  Biso   1.000  Al
  Al2716   1.0000 0.32500  0.47500  0.32500  Biso   1.000  Al
  Al2717   1.0000 0.37500  0.42500  0.32500  Biso   1.000  Al
  Al2718   1.0000 0.37500  0.47500  0.30000  Biso   1.000  Al
  Al2719   1.0000 0.32500  0.42500  0.35000  Biso   1.000  Al
  Al2720   1.0000 0.32500  0.47500  0.37500  Biso   1.000  Al
  Al2721   1.0000 0.37500  0.42500  0.37500  Biso   1.000  Al
  Al2722   1.0000 0.37500  0.47500  0.35000  Biso   1.000  Al
  Al2723   1.0000 0.32500  0.42500  0.40000  Biso   1.000  Al
  Al2724   1.0000 0.32500  0.47500  0.42500  Biso   1.000  Al
  Al2725   1.0000 0.37500  0.42500  0.42500  Biso   1.000  Al
  Al2726   1.0000 0.37500  0.47500  0.40000  Biso   1.000  Al
  Al2727   1.0000 0.32500  0.42500  0.45000  Biso   1.000  Al
  Al2728   1.0000 0.32500  0.47500  0.47500  Biso   1.000  Al
  Al2729   1.0000 0.37500  0.42500  0.47500  Biso   1.000  Al
  Al2730   1.0000 0.37500  0.47500  0.45000  Biso   1.000  Al
  Al2731   1.0000 0.32500  0.42500  0.50000  Biso   1.000  Al
  Al2732   1.0000 0.32500  0.47500  0.52500  Biso   1.000  Al
  Al2733   1.0000 0.37500  0.42500  0.52500  Biso   1.000  Al
  Al2734   1.0000 0.37500  0.47500  0.50000  Biso   1.000  Al
  Al2735   1.0000 0.32500  0.42500  0.55000  Biso   1.000  Al
  Al2736   1.0000 0.32500  0.47500  0.57500  Biso   1.000  Al
  Al2737   1.0000 0.37500  0.42500  0.57500  Biso   1.000  Al
  Al2738   1.0000 0.37500  0.47500  0.55000  Biso   1.000  Al
  Al2739   1.0000 0.32500  0.42500  0.60000  Biso   1.000  Al
  Al2740   1.0000 0.32500  0.47500  0.62500  Biso   1.000  Al
  Al2741   1.0000 0.37500  0.42500  0.62500  Biso   1.000  Al
  Al2742   1.0000 0.37500  0.47500  0.60000  Biso   1.000  Al
  Al2743   1.0000 0.32500  0.42500  0.65000  Biso   1.000  Al
  Al2744   1.0000 0.32500  0.47500  0.67500  Biso   1.000  Al
  Al2745   1.0000 0.37500  0.42500  0.67500  Biso   1.000  Al
  Al2746   1.0000 0.37500  0.47500  0.65000  Biso   1.000  Al
  Al2747   1.0000 0.32500  0.42500  0.70000  Biso   1.000  Al
  Al2748   1.0000 0.32500  0.47500  0.72500  Biso   1.000  Al
  Al2749   1.0000 0.37500  0.42500  0.72500  Biso   1.000  Al
  Al2750   1.0000 0.37500  0.47500  0.70000  Biso   1.000  Al
  Al2751   1.0000 0.32500  0.42500  0.75000  Biso   1.000  Al
  Al2752   1.0000 0.32500  0.47500  0.77500  Biso   1.000  Al
  Al2753   1.0000 0.37500  0.42500  0.77500  Biso   1.000  Al
  Al2754   1.0000 0.37500  0.47500  0.75000  Biso   1.000  Al
  Al2755   1.0000 0.32500  0.42500  0.80000  Biso   1.000  Al
  Al2756   1.0000 0.32500  0.47500  0.82500  Biso   1.000  Al
  Al2757   1.0000 0.37500  0.42500  0.82500  Biso   1.000  Al
  Al2758   1.0000 0.37500  0.47500  0.80000  Biso   1.000  Al
  Al2759   1.0000 0.32500  0.42500  0.85000  Biso   1.000  Al
  Al2760   1.0000 0.32500  0.47500  0.87500  Biso   1.000  Al
  Al2761   1.0000 0.37500  0.42500  0.87500  Biso   1.000  Al
  Al2762   1.0000 0.37500  0.47500  0.85000  Biso   1.000  Al
  Al2763   1.0000 0.32500  0.42500  0.90000  Biso   1.000  Al
  Al2764   1.0000 0.32500  0.47500  0.92500  Biso   1.000  Al
  Al2765   1.0000 0.37500  0.42500  0.92500  Biso   1.000  Al
  Al2766   1.0000 0.37500  0.47500  0.90000  Biso   1.000  Al
  Al2767   1.0000 0.32500  0.42500  0.95000  Biso   1.000  Al
  Al2768   1.0000 0.32500  0.47500  0.97500  Biso   1.000  Al
  Al2769   1.0000 0.37500  0.42500  0.97500  Biso   1.000  Al
  Al2770   1.0000 0.37500  0.47500  0.95000  Biso   1.000  Al
  Al2771   1.0000 0.32500  0.52500  0.00000  Biso   1.000  Al
  Al2772   1.0000 0.32500  0.57500  0.02500  Biso   1.000  Al
  Al2773   1.0000 0.37500  0.52500  0.02500  Biso   1.000  Al
  Al2774   1.0000 0.37500  0.57500  0.00000  Biso   1.000  Al
  Al2775   1.0000 0.32500  0.52500  0.05000  Biso   1.000  Al
  Al2776   1.0000 0.32500  0.57500  0.07500  Biso   1.000  Al
  Al2777   1.0000 0.37500  0.52500  0.07500  Biso   1.000  Al
  Al2778   1.0000 0.37500  0.57500  0.05000  Biso   1.000  Al
  Al2779   1.0000 0.32500  0.52500  0.10000  Biso   1.000  Al
  Al2780   1.0000 0.32500  0.57500  0.12500  Biso   1.000  Al
  Al2781   1.0000 0.37500  0.52500  0.12500  Biso   1.000  Al
  Al2782   1.0000 0.37500  0.57500  0.10000  Biso   1.000  Al
  Al2783   1.0000 0.32500  0.52500  0.15000  Biso   1.000  Al
  Al2784   1.0000 0.32500  0.57500  0.17500  Biso   1.000  Al
  Al2785   1.0000 0.37500  0.52500  0.17500  Biso   1.000  Al
  Al2786   1.0000 0.37500  0.57500  0.15000  Biso   1.000  Al
  Al2787   1.0000 0.32500  0.52500  0.20000  Biso   1.000  Al
  Al2788   1.0000 0.32500  0.57500  0.22500  Biso   1.000  Al
  Al2789   1.0000 0.37500  0.52500  0.22500  Biso   1.000  Al
  Al2790   1.0000 0.37500  0.57500  0.20000  Biso   1.000  Al
  Al2791   1.0000 0.32500  0.52500  0.25000  Biso   1.000  Al
  Al2792   1.0000 0.32500  0.57500  0.27500  Biso   1.000  Al
  Al2793   1.0000 0.37500  0.52500  0.27500  Biso   1.000  Al
  Al2794   1.0000 0.37500  0.57500  0.25000  Biso   1.000  Al
  Al2795   1.0000 0.32500  0.52500  0.30000  Biso   1.000  Al
  Al2796   1.0000 0.32500  0.57500  0.32500  Biso   1.000  Al
  Al2797   1.0000 0.37500  0.52500  0.32500  Biso   1.000  Al
  Al2798   1.0000 0.37500  0.57500  0.30000  Biso   1.000  Al
  Al2799   1.0000 0.32500  0.52500  0.35000  Biso   1.000  Al
  Al2800   1.0000 0.32500  0.57500  0.37500  Biso   1.000  Al
  Al2801   1.0000 0.37500  0.52500  0.37500  Biso   1.000  Al
  Al2802   1.0000 0.37500  0.57500  0.35000  Biso   1.000  Al
  Al2803   1.0000 0.32500  0.52500  0.40000  Biso   1.000  Al
  Al2804   1.0000 0.32500  0.57500  0.42500  Biso   1.000  Al
  Al2805   1.0000 0.37500  0.52500  0.42500  Biso   1.000  Al
  Al2806   1.0000 0.37500  0.57500  0.40000  Biso   1.000  Al
  Al2807   1.0000 0.32500  0.52500  0.45000  Biso   1.000  Al
  Al2808   1.0000 0.32500  0.57500  0.47500  Biso   1.000  Al
  Al2809   1.0000 0.37500  0.52500  0.47500  Biso   1.000  Al
  Al2810   1.0000 0.37500  0.57500  0.45000  Biso   1.000  Al
  Al2811   1.0000 0.32500  0.52500  0.50000  Biso   1.000  Al
  Al2812   1.0000 0.32500  0.57500  0.52500  Biso   1.000  Al
  Al2813   1.0000 0.37500  0.52500  0.52500  Biso   1.000  Al
  Al2814   1.0000 0.37500  0.57500  0.50000  Biso   1.000  Al
  Al2815   1.0000 0.32500  0.52500  0.55000  Biso   1.000  Al
  Al2816   1.0000 0.32500  0.57500  0.57500  Biso   1.000  Al
  Al2817   1.0000 0.37500  0.52500  0.57500  Biso   1.000  Al
  Al2818   1.0000 0.37500  0.57500  0.55000  Biso   1.000  Al
  Al2819   1.0000 0.32500  0.52500  0.60000  Biso   1.000  Al
  Al2820   1.0000 0.32500  0.57500  0.62500  Biso   1.000  Al
  Al2821   1.0000 0.37500  0.52500  0.62500  Biso   1.000  Al
  Al2822   1.0000 0.37500  0.57500  0.60000  Biso   1.000  Al
  Al2823   1.0000 0.32500  0.52500  0.65000  Biso   1.000  Al
  Al2824   1.0000 0.32500  0.57500  0.67500  Biso   1.000  Al
  Al2825   1.0000 0.37500  0.52500  0.67500  Biso   1.000  Al
  Al2826   1.0000 0.37500  0.57500  0.65000  Biso   1.000  Al
  Al2827   1.0000 0.32500  0.52500  0.70000  Biso   1.000  Al
  Al2828   1.0000 0.32500  0.57500  0.72500  Biso   1.000  Al
  Al2829   1.0000 0.37500  0.52500  0.72500  Biso   1.000  Al
  Al2830   1.0000 0.37500  0.57500  0.70000  Biso   1.000  Al
  Al2831   1.0000 0.32500  0.52500  0.75000  Biso   1.000  Al
  Al2832   1.0000 0.32500  0.57500  0.77500  Biso   1.000  Al
  Al2833   1.0000 0.37500  0.52500  0.77500  Biso   1.000  Al
  Al2834   1.0000 0.37500  0.57500  0.75000  Biso   1.000  Al
  Al2835   1.0000 0.32500  0.52500  0.80000  Biso   1.000  Al
  Al2836   1.0000 0.32500  0.57500  0.82500  Biso   1.000  Al
  Al2837   1.0000 0.37500  0.52500  0.82500  Biso   1.000  Al
  Al2838   1.0000 0.37500  0.57500  0.80000  Biso   1.000  Al
  Al2839   1.0000 0.32500  0.52500  0.85000  Biso   1.000  Al
  Al2840   1.0000 0.32500  0.57500  0.87500  Biso   1.000  Al
  Al2841   1.0000 0.37500  0.52500  0.87500  Biso   1.000  Al
  Al2842   1.0000 0.37500  0.57500  0.85000  Biso   1.000  Al
  Al2843   1.0000 0.32500  0.52500  0.90000  Biso   1.000  Al
  Al2844   1.0000 0.32500  0.57500  0.92500  Biso   1.000  Al
  Al2845   1.0000 0.37500  0.52500  0.92500  Biso   1.000  Al
  Al2846   1.0000 0.37500  0.57500  0.90000  Biso   1.000  Al
  Al2847   1.0000 0.32500  0.52500  0.95000  Biso   1.000  Al
  Al2848   1.0000 0.32500  0.57500  0.97500  Biso   1.000  Al
  Al2849   1.0000 0.37500  0.52500  0.97500  Biso   1.000  Al
  Al2850   1.0000 0.37500  0.57500  0.95000  Biso   1.000  Al
  Al2851   1.0000 0.32500  0.62500  0.00000  Biso   1.000  Al
  Al2852   1.0000 0.32500  0.67500  0.02500  Biso   1.000  Al
  Al2853   1.0000 0.37500  0.62500  0.02500  Biso   1.000  Al
  Al2854   1.0000 0.37500  0.67500  0.00000  Biso   1.000  Al
  Al2855   1.0000 0.32500  0.62500  0.05000  Biso   1.000  Al
  Al2856   1.0000 0.32500  0.67500  0.07500  Biso   1.000  Al
  Al2857   1.0000 0.37500  0.62500  0.07500  Biso   1.000  Al
  Al2858   1.0000 0.37500  0.67500  0.05000  Biso   1.000  Al
  Al2859   1.0000 0.32500  0.62500  0.10000  Biso   1.000  Al
  Al2860   1.0000 0.32500  0.67500  0.12500  Biso   1.000  Al
  Al2861   1.0000 0.37500  0.62500  0.12500  Biso   1.000  Al
  Al2862   1.0000 0.37500  0.67500  0.10000  Biso   1.000  Al
  Al2863   1.0000 0.32500  0.62500  0.15000  Biso   1.000  Al
  Al2864   1.0000 0.32500  0.67500  0.17500  Biso   1.000  Al
  Al2865   1.0000 0.37500  0.62500  0.17500  Biso   1.000  Al
  Al2866   1.0000 0.37500  0.67500  0.15000  Biso   1.000  Al
  Al2867   1.0000 0.32500  0.62500  0.20000  Biso   1.000  Al
  Al2868   1.0000 0.32500  0.67500  0.22500  Biso   1.000  Al
  Al2869   1.0000 0.37500  0.62500  0.22500  Biso   1.000  Al
  Al2870   1.0000 0.37500  0.67500  0.20000  Biso   1.000  Al
  Al2871   1.0000 0.32500  0.62500  0.25000  Biso   1.000  Al
  Al2872   1.0000 0.32500  0.67500  0.27500  Biso   1.000  Al
  Al2873   1.0000 0.37500  0.62500  0.27500  Biso   1.000  Al
  Al2874   1.0000 0.37500  0.67500  0.25000  Biso   1.000  Al
  Al2875   1.0000 0.32500  0.62500  0.30000  Biso   1.000  Al
  Al2876   1.0000 0.32500  0.67500  0.32500  Biso   1.000  Al
  Al2877   1.0000 0.37500  0.62500  0.32500  Biso   1.000  Al
  Al2878   1.0000 0.37500  0.67500  0.30000  Biso   1.000  Al
  Al2879   1.0000 0.32500  0.62500  0.35000  Biso   1.000  Al
  Al2880   1.0000 0.32500  0.67500  0.37500  Biso   1.000  Al
  Al2881   1.0000 0.37500  0.62500  0.37500  Biso   1.000  Al
  Al2882   1.0000 0.37500  0.67500  0.35000  Biso   1.000  Al
  Al2883   1.0000 0.32500  0.62500  0.40000  Biso   1.000  Al
  Al2884   1.0000 0.32500  0.67500  0.42500  Biso   1.000  Al
  Al2885   1.0000 0.37500  0.62500  0.42500  Biso   1.000  Al
  Al2886   1.0000 0.37500  0.67500  0.40000  Biso   1.000  Al
  Al2887   1.0000 0.32500  0.62500  0.45000  Biso   1.000  Al
  Al2888   1.0000 0.32500  0.67500  0.47500  Biso   1.000  Al
  Al2889   1.0000 0.37500  0.62500  0.47500  Biso   1.000  Al
  Al2890   1.0000 0.37500  0.67500  0.45000  Biso   1.000  Al
  Al2891   1.0000 0.32500  0.62500  0.50000  Biso   1.000  Al
  Al2892   1.0000 0.32500  0.67500  0.52500  Biso   1.000  Al
  Al2893   1.0000 0.37500  0.62500  0.52500  Biso   1.000  Al
  Al2894   1.0000 0.37500  0.67500  0.50000  Biso   1.000  Al
  Al2895   1.0000 0.32500  0.62500  0.55000  Biso   1.000  Al
  Al2896   1.0000 0.32500  0.67500  0.57500  Biso   1.000  Al
  Al2897   1.0000 0.37500  0.62500  0.57500  Biso   1.000  Al
  Al2898   1.0000 0.37500  0.67500  0.55000  Biso   1.000  Al
  Al2899   1.0000 0.32500  0.62500  0.60000  Biso   1.000  Al
  Al2900   1.0000 0.32500  0.67500  0.62500  Biso   1.000  Al
  Al2901   1.0000 0.37500  0.62500  0.62500  Biso   1.000  Al
  Al2902   1.0000 0.37500  0.67500  0.60000  Biso   1.000  Al
  Al2903   1.0000 0.32500  0.62500  0.65000  Biso   1.000  Al
  Al2904   1.0000 0.32500  0.67500  0.67500  Biso   1.000  Al
  Al2905   1.0000 0.37500  0.62500  0.67500  Biso   1.000  Al
  Al2906   1.0000 0.37500  0.67500  0.65000  Biso   1.000  Al
  Al2907   1.0000 0.32500  0.62500  0.70000  Biso   1.000  Al
  Al2908   1.0000 0.32500  0.67500  0.72500  Biso   1.000  Al
  Al2909   1.0000 0.37500  0.62500  0.72500  Biso   1.000  Al
  Al2910   1.0000 0.37500  0.67500  0.70000  Biso   1.000  Al
  Al2911   1.0000 0.32500  0.62500  0.75000  Biso   1.000  Al
  Al2912   1.0000 0.32500  0.67500  0.77500  Biso   1.000  Al
  Al2913   1.0000 0.37500  0.62500  0.77500  Biso   1.000  Al
  Al2914   1.0000 0.37500  0.67500  0.75000  Biso   1.000  Al
  Al2915   1.0000 0.32500  0.62500  0.80000  Biso   1.000  Al
  Al2916   1.0000 0.32500  0.67500  0.82500  Biso   1.000  Al
  Al2917   1.0000 0.37500  0.62500  0.82500  Biso   1.000  Al
  Al2918   1.0000 0.37500  0.67500  0.80000  Biso   1.000  Al
  Al2919   1.0000 0.32500  0.62500  0.85000  Biso   1.000  Al
  Al2920   1.0000 0.32500  0.67500  0.87500  Biso   1.000  Al
  Al2921   1.0000 0.37500  0.62500  0.87500  Biso   1.000  Al
  Al2922   1.0000 0.37500  0.67500  0.85000  Biso   1.000  Al
  Al2923   1.0000 0.32500  0.62500  0.90000  Biso   1.000  Al
  Al2924   1.0000 0.32500  0.67500  0.92500  Biso   1.000  Al
  Al2925   1.0000 0.37500  0.62500  0.92500  Biso   1.000  Al
  Al2926   1.0000 0.37500  0.67500  0.90000  Biso   1.000  Al
  Al2927   1.0000 0.32500  0.62500  0.95000  Biso   1.000  Al
  Al2928   1.0000 0.32500  0.67500  0.97500  Biso   1.000  Al
  Al2929   1.0000 0.37500  0.62500  0.97500  Biso   1.000  Al
  Al2930   1.0000 0.37500  0.67500  0.95000  Biso   1.000  Al
  Al2931   1.0000 0.32500  0.72500  0.00000  Biso   1.000  Al
  Al2932   1.0000 0.32500  0.77500  0.02500  Biso   1.000  Al
  Al2933   1.0000 0.37500  0.72500  0.02500  Biso   1.000  Al
  Al2934   1.0000 0.37500  0.77500  0.00000  Biso   1.000  Al
  Al2935   1.0000 0.32500  0.72500  0.05000  Biso   1.000  Al
  Al2936   1.0000 0.32500  0.77500  0.07500  Biso   1.000  Al
  Al2937   1.0000 0.37500  0.72500  0.07500  Biso   1.000  Al
  Al2938   1.0000 0.37500  0.77500  0.05000  Biso   1.000  Al
  Al2939   1.0000 0.32500  0.72500  0.10000  Biso   1.000  Al
  Al2940   1.0000 0.32500  0.77500  0.12500  Biso   1.000  Al
  Al2941   1.0000 0.37500  0.72500  0.12500  Biso   1.000  Al
  Al2942   1.0000 0.37500  0.77500  0.10000  Biso   1.000  Al
  Al2943   1.0000 0.32500  0.72500  0.15000  Biso   1.000  Al
  Al2944   1.0000 0.32500  0.77500  0.17500  Biso   1.000  Al
  Al2945   1.0000 0.37500  0.72500  0.17500  Biso   1.000  Al
  Al2946   1.0000 0.37500  0.77500  0.15000  Biso   1.000  Al
  Al2947   1.0000 0.32500  0.72500  0.20000  Biso   1.000  Al
  Al2948   1.0000 0.32500  0.77500  0.22500  Biso   1.000  Al
  Al2949   1.0000 0.37500  0.72500  0.22500  Biso   1.000  Al
  Al2950   1.0000 0.37500  0.77500  0.20000  Biso   1.000  Al
  Al2951   1.0000 0.32500  0.72500  0.25000  Biso   1.000  Al
  Al2952   1.0000 0.32500  0.77500  0.27500  Biso   1.000  Al
  Al2953   1.0000 0.37500  0.72500  0.27500  Biso   1.000  Al
  Al2954   1.0000 0.37500  0.77500  0.25000  Biso   1.000  Al
  Al2955   1.0000 0.32500  0.72500  0.30000  Biso   1.000  Al
  Al2956   1.0000 0.32500  0.77500  0.32500  Biso   1.000  Al
  Al2957   1.0000 0.37500  0.72500  0.32500  Biso   1.000  Al
  Al2958   1.0000 0.37500  0.77500  0.30000  Biso   1.000  Al
  Al2959   1.0000 0.32500  0.72500  0.35000  Biso   1.000  Al
  Al2960   1.0000 0.32500  0.77500  0.37500  Biso   1.000  Al
  Al2961   1.0000 0.37500  0.72500  0.37500  Biso   1.000  Al
  Al2962   1.0000 0.37500  0.77500  0.35000  Biso   1.000  Al
  Al2963   1.0000 0.32500  0.72500  0.40000  Biso   1.000  Al
  Al2964   1.0000 0.32500  0.77500  0.42500  Biso   1.000  Al
  Al2965   1.0000 0.37500  0.72500  0.42500  Biso   1.000  Al
  Al2966   1.0000 0.37500  0.77500  0.40000  Biso   1.000  Al
  Al2967   1.0000 0.32500  0.72500  0.45000  Biso   1.000  Al
  Al2968   1.0000 0.32500  0.77500  0.47500  Biso   1.000  Al
  Al2969   1.0000 0.37500  0.72500  0.47500  Biso   1.000  Al
  Al2970   1.0000 0.37500  0.77500  0.45000  Biso   1.000  Al
  Al2971   1.0000 0.32500  0.72500  0.50000  Biso   1.000  Al
  Al2972   1.0000 0.32500  0.77500  0.52500  Biso   1.000  Al
  Al2973   1.0000 0.37500  0.72500  0.52500  Biso   1.000  Al
  Al2974   1.0000 0.37500  0.77500  0.50000  Biso   1.000  Al
  Al2975   1.0000 0.32500  0.72500  0.55000  Biso   1.000  Al
  Al2976   1.0000 0.32500  0.77500  0.57500  Biso   1.000  Al
  Al2977   1.0000 0.37500  0.72500  0.57500  Biso   1.000  Al
  Al2978   1.0000 0.37500  0.77500  0.55000  Biso   1.000  Al
  Al2979   1.0000 0.32500  0.72500  0.60000  Biso   1.000  Al
  Al2980   1.0000 0.32500  0.77500  0.62500  Biso   1.000  Al
  Al2981   1.0000 0.37500  0.72500  0.62500  Biso   1.000  Al
  Al2982   1.0000 0.37500  0.77500  0.60000  Biso   1.000  Al
  Al2983   1.0000 0.32500  0.72500  0.65000  Biso   1.000  Al
  Al2984   1.0000 0.32500  0.77500  0.67500  Biso   1.000  Al
  Al2985   1.0000 0.37500  0.72500  0.67500  Biso   1.000  Al
  Al2986   1.0000 0.37500  0.77500  0.65000  Biso   1.000  Al
  Al2987   1.0000 0.32500  0.72500  0.70000  Biso   1.000  Al
  Al2988   1.0000 0.32500  0.77500  0.72500  Biso   1.000  Al
  Al2989   1.0000 0.37500  0.72500  0.72500  Biso   1.000  Al
  Al2990   1.0000 0.37500  0.77500  0.70000  Biso   1.000  Al
  Al2991   1.0000 0.32500  0.72500  0.75000  Biso   1.000  Al
  Al2992   1.0000 0.32500  0.77500  0.77500  Biso   1.000  Al
  Al2993   1.0000 0.37500  0.72500  0.77500  Biso   1.000  Al
  Al2994   1.0000 0.37500  0.77500  0.75000  Biso   1.000  Al
  Al2995   1.0000 0.32500  0.72500  0.80000  Biso   1.000  Al
  Al2996   1.0000 0.32500  0.77500  0.82500  Biso   1.000  Al
  Al2997   1.0000 0.37500  0.72500  0.82500  Biso   1.000  Al
  Al2998   1.0000 0.37500  0.77500  0.80000  Biso   1.000  Al
  Al2999   1.0000 0.32500  0.72500  0.85000  Biso   1.000  Al
  Al3000   1.0000 0.32500  0.77500  0.87500  Biso   1.000  Al
  Al3001   1.0000 0.37500  0.72500  0.87500  Biso   1.000  Al
  Al3002   1.0000 0.37500  0.77500  0.85000  Biso   1.000  Al
  Al3003   1.0000 0.32500  0.72500  0.90000  Biso   1.000  Al
  Al3004   1.0000 0.32500  0.77500  0.92500  Biso   1.000  Al
  Al3005   1.0000 0.37500  0.72500  0.92500  Biso   1.000  Al
  Al3006   1.0000 0.37500  0.77500  0.90000  Biso   1.000  Al
  Al3007   1.0000 0.32500  0.72500  0.95000  Biso   1.000  Al
  Al3008   1.0000 0.32500  0.77500  0.97500  Biso   1.000  Al
  Al3009   1.0000 0.37500  0.72500  0.97500  Biso   1.000  Al
  Al3010   1.0000 0.37500  0.77500  0.95000  Biso   1.000  Al
  Al3011   1.0000 0.32500  0.82500  0.00000  Biso   1.000  Al
  Al3012   1.0000 0.32500  0.87500  0.02500  Biso   1.000  Al
  Al3013   1.0000 0.37500  0.82500  0.02500  Biso   1.000  Al
  Al3014   1.0000 0.37500  0.87500  0.00000  Biso   1.000  Al
  Al3015   1.0000 0.32500  0.82500  0.05000  Biso   1.000  Al
  Al3016   1.0000 0.32500  0.87500  0.07500  Biso   1.000  Al
  Al3017   1.0000 0.37500  0.82500  0.07500  Biso   1.000  Al
  Al3018   1.0000 0.37500  0.87500  0.05000  Biso   1.000  Al
  Al3019   1.0000 0.32500  0.82500  0.10000  Biso   1.000  Al
  Al3020   1.0000 0.32500  0.87500  0.12500  Biso   1.000  Al
  Al3021   1.0000 0.37500  0.82500  0.12500  Biso   1.000  Al
  Al3022   1.0000 0.37500  0.87500  0.10000  Biso   1.000  Al
  Al3023   1.0000 0.32500  0.82500  0.15000  Biso   1.000  Al
  Al3024   1.0000 0.32500  0.87500  0.17500  Biso   1.000  Al
  Al3025   1.0000 0.37500  0.82500  0.17500  Biso   1.000  Al
  Al3026   1.0000 0.37500  0.87500  0.15000  Biso   1.000  Al
  Al3027   1.0000 0.32500  0.82500  0.20000  Biso   1.000  Al
  Al3028   1.0000 0.32500  0.87500  0.22500  Biso   1.000  Al
  Al3029   1.0000 0.37500  0.82500  0.22500  Biso   1.000  Al
  Al3030   1.0000 0.37500  0.87500  0.20000  Biso   1.000  Al
  Al3031   1.0000 0.32500  0.82500  0.25000  Biso   1.000  Al
  Al3032   1.0000 0.32500  0.87500  0.27500  Biso   1.000  Al
  Al3033   1.0000 0.37500  0.82500  0.27500  Biso   1.000  Al
  Al3034   1.0000 0.37500  0.87500  0.25000  Biso   1.000  Al
  Al3035   1.0000 0.32500  0.82500  0.30000  Biso   1.000  Al
  Al3036   1.0000 0.32500  0.87500  0.32500  Biso   1.000  Al
  Al3037   1.0000 0.37500  0.82500  0.32500  Biso   1.000  Al
  Al3038   1.0000 0.37500  0.87500  0.30000  Biso   1.000  Al
  Al3039   1.0000 0.32500  0.82500  0.35000  Biso   1.000  Al
  Al3040   1.0000 0.32500  0.87500  0.37500  Biso   1.000  Al
  Al3041   1.0000 0.37500  0.82500  0.37500  Biso   1.000  Al
  Al3042   1.0000 0.37500  0.87500  0.35000  Biso   1.000  Al
  Al3043   1.0000 0.32500  0.82500  0.40000  Biso   1.000  Al
  Al3044   1.0000 0.32500  0.87500  0.42500  Biso   1.000  Al
  Al3045   1.0000 0.37500  0.82500  0.42500  Biso   1.000  Al
  Al3046   1.0000 0.37500  0.87500  0.40000  Biso   1.000  Al
  Al3047   1.0000 0.32500  0.82500  0.45000  Biso   1.000  Al
  Al3048   1.0000 0.32500  0.87500  0.47500  Biso   1.000  Al
  Al3049   1.0000 0.37500  0.82500  0.47500  Biso   1.000  Al
  Al3050   1.0000 0.37500  0.87500  0.45000  Biso   1.000  Al
  Al3051   1.0000 0.32500  0.82500  0.50000  Biso   1.000  Al
  Al3052   1.0000 0.32500  0.87500  0.52500  Biso   1.000  Al
  Al3053   1.0000 0.37500  0.82500  0.52500  Biso   1.000  Al
  Al3054   1.0000 0.37500  0.87500  0.50000  Biso   1.000  Al
  Al3055   1.0000 0.32500  0.82500  0.55000  Biso   1.000  Al
  Al3056   1.0000 0.32500  0.87500  0.57500  Biso   1.000  Al
  Al3057   1.0000 0.37500  0.82500  0.57500  Biso   1.000  Al
  Al3058   1.0000 0.37500  0.87500  0.55000  Biso   1.000  Al
  Al3059   1.0000 0.32500  0.82500  0.60000  Biso   1.000  Al
  Al3060   1.0000 0.32500  0.87500  0.62500  Biso   1.000  Al
  Al3061   1.0000 0.37500  0.82500  0.62500  Biso   1.000  Al
  Al3062   1.0000 0.37500  0.87500  0.60000  Biso   1.000  Al
  Al3063   1.0000 0.32500  0.82500  0.65000  Biso   1.000  Al
  Al3064   1.0000 0.32500  0.87500  0.67500  Biso   1.000  Al
  Al3065   1.0000 0.37500  0.82500  0.67500  Biso   1.000  Al
  Al3066   1.0000 0.37500  0.87500  0.65000  Biso   1.000  Al
  Al3067   1.0000 0.32500  0.82500  0.70000  Biso   1.000  Al
  Al3068   1.0000 0.32500  0.87500  0.72500  Biso   1.000  Al
  Al3069   1.0000 0.37500  0.82500  0.72500  Biso   1.000  Al
  Al3070   1.0000 0.37500  0.87500  0.70000  Biso   1.000  Al
  Al3071   1.0000 0.32500  0.82500  0.75000  Biso   1.000  Al
  Al3072   1.0000 0.32500  0.87500  0.77500  Biso   1.000  Al
  Al3073   1.0000 0.37500  0.82500  0.77500  Biso   1.000  Al
  Al3074   1.0000 0.37500  0.87500  0.75000  Biso   1.000  Al
  Al3075   1.0000 0.32500  0.82500  0.80000  Biso   1.000  Al
  Al3076   1.0000 0.32500  0.87500  0.82500  Biso   1.000  Al
  Al3077   1.0000 0.37500  0.82500  0.82500  Biso   1.000  Al
  Al3078   1.0000 0.37500  0.87500  0.80000  Biso   1.000  Al
  Al3079   1.0000 0.32500  0.82500  0.85000  Biso   1.000  Al
  Al3080   1.0000 0.32500  0.87500  0.87500  Biso   1.000  Al
  Al3081   1.0000 0.37500  0.82500  0.87500  Biso   1.000  Al
  Al3082   1.0000 0.37500  0.87500  0.85000  Biso   1.000  Al
  Al3083   1.0000 0.32500  0.82500  0.90000  Biso   1.000  Al
  Al3084   1.0000 0.32500  0.87500  0.92500  Biso   1.000  Al
  Al3085   1.0000 0.37500  0.82500  0.92500  Biso   1.000  Al
  Al3086   1.0000 0.37500  0.87500  0.90000  Biso   1.000  Al
  Al3087   1.0000 0.32500  0.82500  0.95000  Biso   1.000  Al
  Al3088   1.0000 0.32500  0.87500  0.97500  Biso   1.000  Al
  Al3089   1.0000 0.37500  0.82500  0.97500  Biso   1.000  Al
  Al3090   1.0000 0.37500  0.87500  0.95000  Biso   1.000  Al
  Al3091   1.0000 0.32500  0.92500  0.00000  Biso   1.000  Al
  Al3092   1.0000 0.32500  0.97500  0.02500  Biso   1.000  Al
  Al3093   1.0000 0.37500  0.92500  0.02500  Biso   1.000  Al
  Al3094   1.0000 0.37500  0.97500  0.00000  Biso   1.000  Al
  Al3095   1.0000 0.32500  0.92500  0.05000  Biso   1.000  Al
  Al3096   1.0000 0.32500  0.97500  0.07500  Biso   1.000  Al
  Al3097   1.0000 0.37500  0.92500  0.07500  Biso   1.000  Al
  Al3098   1.0000 0.37500  0.97500  0.05000  Biso   1.000  Al
  Al3099   1.0000 0.32500  0.92500  0.10000  Biso   1.000  Al
  Al3100   1.0000 0.32500  0.97500  0.12500  Biso   1.000  Al
  Al3101   1.0000 0.37500  0.92500  0.12500  Biso   1.000  Al
  Al3102   1.0000 0.37500  0.97500  0.10000  Biso   1.000  Al
  Al3103   1.0000 0.32500  0.92500  0.15000  Biso   1.000  Al
  Al3104   1.0000 0.32500  0.97500  0.17500  Biso   1.000  Al
  Al3105   1.0000 0.37500  0.92500  0.17500  Biso   1.000  Al
  Al3106   1.0000 0.37500  0.97500  0.15000  Biso   1.000  Al
  Al3107   1.0000 0.32500  0.92500  0.20000  Biso   1.000  Al
  Al3108   1.0000 0.32500  0.97500  0.22500  Biso   1.000  Al
  Al3109   1.0000 0.37500  0.92500  0.22500  Biso   1.000  Al
  Al3110   1.0000 0.37500  0.97500  0.20000  Biso   1.000  Al
  Al3111   1.0000 0.32500  0.92500  0.25000  Biso   1.000  Al
  Al3112   1.0000 0.32500  0.97500  0.27500  Biso   1.000  Al
  Al3113   1.0000 0.37500  0.92500  0.27500  Biso   1.000  Al
  Al3114   1.0000 0.37500  0.97500  0.25000  Biso   1.000  Al
  Al3115   1.0000 0.32500  0.92500  0.30000  Biso   1.000  Al
  Al3116   1.0000 0.32500  0.97500  0.32500  Biso   1.000  Al
  Al3117   1.0000 0.37500  0.92500  0.32500  Biso   1.000  Al
  Al3118   1.0000 0.37500  0.97500  0.30000  Biso   1.000  Al
  Al3119   1.0000 0.32500  0.92500  0.35000  Biso   1.000  Al
  Al3120   1.0000 0.32500  0.97500  0.37500  Biso   1.000  Al
  Al3121   1.0000 0.37500  0.92500  0.37500  Biso   1.000  Al
  Al3122   1.0000 0.37500  0.97500  0.35000  Biso   1.000  Al
  Al3123   1.0000 0.32500  0.92500  0.40000  Biso   1.000  Al
  Al3124   1.0000 0.32500  0.97500  0.42500  Biso   1.000  Al
  Al3125   1.0000 0.37500  0.92500  0.42500  Biso   1.000  Al
  Al3126   1.0000 0.37500  0.97500  0.40000  Biso   1.000  Al
  Al3127   1.0000 0.32500  0.92500  0.45000  Biso   1.000  Al
  Al3128   1.0000 0.32500  0.97500  0.47500  Biso   1.000  Al
  Al3129   1.0000 0.37500  0.92500  0.47500  Biso   1.000  Al
  Al3130   1.0000 0.37500  0.97500  0.45000  Biso   1.000  Al
  Al3131   1.0000 0.32500  0.92500  0.50000  Biso   1.000  Al
  Al3132   1.0000 0.32500  0.97500  0.52500  Biso   1.000  Al
  Al3133   1.0000 0.37500  0.92500  0.52500  Biso   1.000  Al
  Al3134   1.0000 0.37500  0.97500  0.50000  Biso   1.000  Al
  Al3135   1.0000 0.32500  0.92500  0.55000  Biso   1.000  Al
  Al3136   1.0000 0.32500  0.97500  0.57500  Biso   1.000  Al
  Al3137   1.0000 0.37500  0.92500  0.57500  Biso   1.000  Al
  Al3138   1.0000 0.37500  0.97500  0.55000  Biso   1.000  Al
  Al3139   1.0000 0.32500  0.92500  0.60000  Biso   1.000  Al
  Al3140   1.0000 0.32500  0.97500  0.62500  Biso   1.000  Al
  Al3141   1.0000 0.37500  0.92500  0.62500  Biso   1.000  Al
  Al3142   1.0000 0.37500  0.97500  0.60000  Biso   1.000  Al
  Al3143   1.0000 0.32500  0.92500  0.65000  Biso   1.000  Al
  Al3144   1.0000 0.32500  0.97500  0.67500  Biso   1.000  Al
  Al3145   1.0000 0.37500  0.92500  0.67500  Biso   1.000  Al
  Al3146   1.0000 0.37500  0.97500  0.65000  Biso   1.000  Al
  Al3147   1.0000 0.32500  0.92500  0.70000  Biso   1.000  Al
  Al3148   1.0000 0.32500  0.97500  0.72500  Biso   1.000  Al
  Al3149   1.0000 0.37500  0.92500  0.72500  Biso   1.000  Al
  Al3150   1.0000 0.37500  0.97500  0.70000  Biso   1.000  Al
  Al3151   1.0000 0.32500  0.92500  0.75000  Biso   1.000  Al
  Al3152   1.0000 0.32500  0.97500  0.77500  Biso   1.000  Al
  Al3153   1.0000 0.37500  0.92500  0.77500  Biso   1.000  Al
  Al3154   1.0000 0.37500  0.97500  0.75000  Biso   1.000  Al
  Al3155   1.0000 0.32500  0.92500  0.80000  Biso   1.000  Al
  Al3156   1.0000 0.32500  0.97500  0.82500  Biso   1.000  Al
  Al3157   1.0000 0.37500  0.92500  0.82500  Biso   1.000  Al
  Al3158   1.0000 0.37500  0.97500  0.80000  Biso   1.000  Al
  Al3159   1.0000 0.32500  0.92500  0.85000  Biso   1.000  Al
  Al3160   1.0000 0.32500  0.97500  0.87500  Biso   1.000  Al
  Al3161   1.0000 0.37500  0.92500  0.87500  Biso   1.000  Al
  Al3162   1.0000 0.37500  0.97500  0.85000  Biso   1.000  Al
  Al3163   1.0000 0.32500  0.92500  0.90000  Biso   1.000  Al
  Al3164   1.0000 0.32500  0.97500  0.92500  Biso   1.000  Al
  Al3165   1.0000 0.37500  0.92500  0.92500  Biso   1.000  Al
  Al3166   1.0000 0.37500  0.97500  0.90000  Biso   1.000  Al
  Al3167   1.0000 0.32500  0.92500  0.95000  Biso   1.000  Al
  Al3168   1.0000 0.32500  0.97500  0.97500  Biso   1.000  Al
  Al3169   1.0000 0.37500  0.92500  0.97500  Biso   1.000  Al
  Al3170   1.0000 0.37500  0.97500  0.95000  Biso   1.000  Al
  Al3171   1.0000 0.42500  0.02500  0.00000  Biso   1.000  Al
  Al3172   1.0000 0.42500  0.07500  0.02500  Biso   1.000  Al
  Al3173   1.0000 0.47500  0.02500  0.02500  Biso   1.000  Al
  Al3174   1.0000 0.47500  0.07500  0.00000  Biso   1.000  Al
  Al3175   1.0000 0.42500  0.02500  0.05000  Biso   1.000  Al
  Al3176   1.0000 0.42500  0.07500  0.07500  Biso   1.000  Al
  Al3177   1.0000 0.47500  0.02500  0.07500  Biso   1.000  Al
  Al3178   1.0000 0.47500  0.07500  0.05000  Biso   1.000  Al
  Al3179   1.0000 0.42500  0.02500  0.10000  Biso   1.000  Al
  Al3180   1.0000 0.42500  0.07500  0.12500  Biso   1.000  Al
  Al3181   1.0000 0.47500  0.02500  0.12500  Biso   1.000  Al
  Al3182   1.0000 0.47500  0.07500  0.10000  Biso   1.000  Al
  Al3183   1.0000 0.42500  0.02500  0.15000  Biso   1.000  Al
  Al3184   1.0000 0.42500  0.07500  0.17500  Biso   1.000  Al
  Al3185   1.0000 0.47500  0.02500  0.17500  Biso   1.000  Al
  Al3186   1.0000 0.47500  0.07500  0.15000  Biso   1.000  Al
  Al3187   1.0000 0.42500  0.02500  0.20000  Biso   1.000  Al
  Al3188   1.0000 0.42500  0.07500  0.22500  Biso   1.000  Al
  Al3189   1.0000 0.47500  0.02500  0.22500  Biso   1.000  Al
  Al3190   1.0000 0.47500  0.07500  0.20000  Biso   1.000  Al
  Al3191   1.0000 0.42500  0.02500  0.25000  Biso   1.000  Al
  Al3192   1.0000 0.42500  0.07500  0.27500  Biso   1.000  Al
  Al3193   1.0000 0.47500  0.02500  0.27500  Biso   1.000  Al
  Al3194   1.0000 0.47500  0.07500  0.25000  Biso   1.000  Al
  Al3195   1.0000 0.42500  0.02500  0.30000  Biso   1.000  Al
  Al3196   1.0000 0.42500  0.07500  0.32500  Biso   1.000  Al
  Al3197   1.0000 0.47500  0.02500  0.32500  Biso   1.000  Al
  Al3198   1.0000 0.47500  0.07500  0.30000  Biso   1.000  Al
  Al3199   1.0000 0.42500  0.02500  0.35000  Biso   1.000  Al
  Al3200   1.0000 0.42500  0.07500  0.37500  Biso   1.000  Al
  Al3201   1.0000 0.47500  0.02500  0.37500  Biso   1.000  Al
  Al3202   1.0000 0.47500  0.07500  0.35000  Biso   1.000  Al
  Al3203   1.0000 0.42500  0.02500  0.40000  Biso   1.000  Al
  Al3204   1.0000 0.42500  0.07500  0.42500  Biso   1.000  Al
  Al3205   1.0000 0.47500  0.02500  0.42500  Biso   1.000  Al
  Al3206   1.0000 0.47500  0.07500  0.40000  Biso   1.000  Al
  Al3207   1.0000 0.42500  0.02500  0.45000  Biso   1.000  Al
  Al3208   1.0000 0.42500  0.07500  0.47500  Biso   1.000  Al
  Al3209   1.0000 0.47500  0.02500  0.47500  Biso   1.000  Al
  Al3210   1.0000 0.47500  0.07500  0.45000  Biso   1.000  Al
  Al3211   1.0000 0.42500  0.02500  0.50000  Biso   1.000  Al
  Al3212   1.0000 0.42500  0.07500  0.52500  Biso   1.000  Al
  Al3213   1.0000 0.47500  0.02500  0.52500  Biso   1.000  Al
  Al3214   1.0000 0.47500  0.07500  0.50000  Biso   1.000  Al
  Al3215   1.0000 0.42500  0.02500  0.55000  Biso   1.000  Al
  Al3216   1.0000 0.42500  0.07500  0.57500  Biso   1.000  Al
  Al3217   1.0000 0.47500  0.02500  0.57500  Biso   1.000  Al
  Al3218   1.0000 0.47500  0.07500  0.55000  Biso   1.000  Al
  Al3219   1.0000 0.42500  0.02500  0.60000  Biso   1.000  Al
  Al3220   1.0000 0.42500  0.07500  0.62500  Biso   1.000  Al
  Al3221   1.0000 0.47500  0.02500  0.62500  Biso   1.000  Al
  Al3222   1.0000 0.47500  0.07500  0.60000  Biso   1.000  Al
  Al3223   1.0000 0.42500  0.02500  0.65000  Biso   1.000  Al
  Al3224   1.0000 0.42500  0.07500  0.67500  Biso   1.000  Al
  Al3225   1.0000 0.47500  0.02500  0.67500  Biso   1.000  Al
  Al3226   1.0000 0.47500  0.07500  0.65000  Biso   1.000  Al
  Al3227   1.0000 0.42500  0.02500  0.70000  Biso   1.000  Al
  Al3228   1.0000 0.42500  0.07500  0.72500  Biso   1.000  Al
  Al3229   1.0000 0.47500  0.02500  0.72500  Biso   1.000  Al
  Al3230   1.0000 0.47500  0.07500  0.70000  Biso   1.000  Al
  Al3231   1.0000 0.42500  0.02500  0.75000  Biso   1.000  Al
  Al3232   1.0000 0.42500  0.07500  0.77500  Biso   1.000  Al
  Al3233   1.0000 0.47500  0.02500  0.77500  Biso   1.000  Al
  Al3234   1.0000 0.47500  0.07500  0.75000  Biso   1.000  Al
  Al3235   1.0000 0.42500  0.02500  0.80000  Biso   1.000  Al
  Al3236   1.0000 0.42500  0.07500  0.82500  Biso   1.000  Al
  Al3237   1.0000 0.47500  0.02500  0.82500  Biso   1.000  Al
  Al3238   1.0000 0.47500  0.07500  0.80000  Biso   1.000  Al
  Al3239   1.0000 0.42500  0.02500  0.85000  Biso   1.000  Al
  Al3240   1.0000 0.42500  0.07500  0.87500  Biso   1.000  Al
  Al3241   1.0000 0.47500  0.02500  0.87500  Biso   1.000  Al
  Al3242   1.0000 0.47500  0.07500  0.85000  Biso   1.000  Al
  Al3243   1.0000 0.42500  0.02500  0.90000  Biso   1.000  Al
  Al3244   1.0000 0.42500  0.07500  0.92500  Biso   1.000  Al
  Al3245   1.0000 0.47500  0.02500  0.92500  Biso   1.000  Al
  Al3246   1.0000 0.47500  0.07500  0.90000  Biso   1.000  Al
  Al3247   1.0000 0.42500  0.02500  0.95000  Biso   1.000  Al
  Al3248   1.0000 0.42500  0.07500  0.97500  Biso   1.000  Al
  Al3249   1.0000 0.47500  0.02500  0.97500  Biso   1.000  Al
  Al3250   1.0000 0.47500  0.07500  0.95000  Biso   1.000  Al
  Al3251   1.0000 0.42500  0.12500  0.00000  Biso   1.000  Al
  Al3252   1.0000 0.42500  0.17500  0.02500  Biso   1.000  Al
  Al3253   1.0000 0.47500  0.12500  0.02500  Biso   1.000  Al
  Al3254   1.0000 0.47500  0.17500  0.00000  Biso   1.000  Al
  Al3255   1.0000 0.42500  0.12500  0.05000  Biso   1.000  Al
  Al3256   1.0000 0.42500  0.17500  0.07500  Biso   1.000  Al
  Al3257   1.0000 0.47500  0.12500  0.07500  Biso   1.000  Al
  Al3258   1.0000 0.47500  0.17500  0.05000  Biso   1.000  Al
  Al3259   1.0000 0.42500  0.12500  0.10000  Biso   1.000  Al
  Al3260   1.0000 0.42500  0.17500  0.12500  Biso   1.000  Al
  Al3261   1.0000 0.47500  0.12500  0.12500  Biso   1.000  Al
  Al3262   1.0000 0.47500  0.17500  0.10000  Biso   1.000  Al
  Al3263   1.0000 0.42500  0.12500  0.15000  Biso   1.000  Al
  Al3264   1.0000 0.42500  0.17500  0.17500  Biso   1.000  Al
  Al3265   1.0000 0.47500  0.12500  0.17500  Biso   1.000  Al
  Al3266   1.0000 0.47500  0.17500  0.15000  Biso   1.000  Al
  Al3267   1.0000 0.42500  0.12500  0.20000  Biso   1.000  Al
  Al3268   1.0000 0.42500  0.17500  0.22500  Biso   1.000  Al
  Al3269   1.0000 0.47500  0.12500  0.22500  Biso   1.000  Al
  Al3270   1.0000 0.47500  0.17500  0.20000  Biso   1.000  Al
  Al3271   1.0000 0.42500  0.12500  0.25000  Biso   1.000  Al
  Al3272   1.0000 0.42500  0.17500  0.27500  Biso   1.000  Al
  Al3273   1.0000 0.47500  0.12500  0.27500  Biso   1.000  Al
  Al3274   1.0000 0.47500  0.17500  0.25000  Biso   1.000  Al
  Al3275   1.0000 0.42500  0.12500  0.30000  Biso   1.000  Al
  Al3276   1.0000 0.42500  0.17500  0.32500  Biso   1.000  Al
  Al3277   1.0000 0.47500  0.12500  0.32500  Biso   1.000  Al
  Al3278   1.0000 0.47500  0.17500  0.30000  Biso   1.000  Al
  Al3279   1.0000 0.42500  0.12500  0.35000  Biso   1.000  Al
  Al3280   1.0000 0.42500  0.17500  0.37500  Biso   1.000  Al
  Al3281   1.0000 0.47500  0.12500  0.37500  Biso   1.000  Al
  Al3282   1.0000 0.47500  0.17500  0.35000  Biso   1.000  Al
  Al3283   1.0000 0.42500  0.12500  0.40000  Biso   1.000  Al
  Al3284   1.0000 0.42500  0.17500  0.42500  Biso   1.000  Al
  Al3285   1.0000 0.47500  0.12500  0.42500  Biso   1.000  Al
  Al3286   1.0000 0.47500  0.17500  0.40000  Biso   1.000  Al
  Al3287   1.0000 0.42500  0.12500  0.45000  Biso   1.000  Al
  Al3288   1.0000 0.42500  0.17500  0.47500  Biso   1.000  Al
  Al3289   1.0000 0.47500  0.12500  0.47500  Biso   1.000  Al
  Al3290   1.0000 0.47500  0.17500  0.45000  Biso   1.000  Al
  Al3291   1.0000 0.42500  0.12500  0.50000  Biso   1.000  Al
  Al3292   1.0000 0.42500  0.17500  0.52500  Biso   1.000  Al
  Al3293   1.0000 0.47500  0.12500  0.52500  Biso   1.000  Al
  Al3294   1.0000 0.47500  0.17500  0.50000  Biso   1.000  Al
  Al3295   1.0000 0.42500  0.12500  0.55000  Biso   1.000  Al
  Al3296   1.0000 0.42500  0.17500  0.57500  Biso   1.000  Al
  Al3297   1.0000 0.47500  0.12500  0.57500  Biso   1.000  Al
  Al3298   1.0000 0.47500  0.17500  0.55000  Biso   1.000  Al
  Al3299   1.0000 0.42500  0.12500  0.60000  Biso   1.000  Al
  Al3300   1.0000 0.42500  0.17500  0.62500  Biso   1.000  Al
  Al3301   1.0000 0.47500  0.12500  0.62500  Biso   1.000  Al
  Al3302   1.0000 0.47500  0.17500  0.60000  Biso   1.000  Al
  Al3303   1.0000 0.42500  0.12500  0.65000  Biso   1.000  Al
  Al3304   1.0000 0.42500  0.17500  0.67500  Biso   1.000  Al
  Al3305   1.0000 0.47500  0.12500  0.67500  Biso   1.000  Al
  Al3306   1.0000 0.47500  0.17500  0.65000  Biso   1.000  Al
  Al3307   1.0000 0.42500  0.12500  0.70000  Biso   1.000  Al
  Al3308   1.0000 0.42500  0.17500  0.72500  Biso   1.000  Al
  Al3309   1.0000 0.47500  0.12500  0.72500  Biso   1.000  Al
  Al3310   1.0000 0.47500  0.17500  0.70000  Biso   1.000  Al
  Al3311   1.0000 0.42500  0.12500  0.75000  Biso   1.000  Al
  Al3312   1.0000 0.42500  0.17500  0.77500  Biso   1.000  Al
  Al3313   1.0000 0.47500  0.12500  0.77500  Biso   1.000  Al
  Al3314   1.0000 0.47500  0.17500  0.75000  Biso   1.000  Al
  Al3315   1.0000 0.42500  0.12500  0.80000  Biso   1.000  Al
  Al3316   1.0000 0.42500  0.17500  0.82500  Biso   1.000  Al
  Al3317   1.0000 0.47500  0.12500  0.82500  Biso   1.000  Al
  Al3318   1.0000 0.47500  0.17500  0.80000  Biso   1.000  Al
  Al3319   1.0000 0.42500  0.12500  0.85000  Biso   1.000  Al
  Al3320   1.0000 0.42500  0.17500  0.87500  Biso   1.000  Al
  Al3321   1.0000 0.47500  0.12500  0.87500  Biso   1.000  Al
  Al3322   1.0000 0.47500  0.17500  0.85000  Biso   1.000  Al
  Al3323   1.0000 0.42500  0.12500  0.90000  Biso   1.000  Al
  Al3324   1.0000 0.42500  0.17500  0.92500  Biso   1.000  Al
  Al3325   1.0000 0.47500  0.12500  0.92500  Biso   1.000  Al
  Al3326   1.0000 0.47500  0.17500  0.90000  Biso   1.000  Al
  Al3327   1.0000 0.42500  0.12500  0.95000  Biso   1.000  Al
  Al3328   1.0000 0.42500  0.17500  0.97500  Biso   1.000  Al
  Al3329   1.0000 0.47500  0.12500  0.97500  Biso   1.000  Al
  Al3330   1.0000 0.47500  0.17500  0.95000  Biso   1.000  Al
  Al3331   1.0000 0.42500  0.22500  0.00000  Biso   1.000  Al
  Al3332   1.0000 0.42500  0.27500  0.02500  Biso   1.000  Al
  Al3333   1.0000 0.47500  0.22500  0.02500  Biso   1.000  Al
  Al3334   1.0000 0.47500  0.27500  0.00000  Biso   1.000  Al
  Al3335   1.0000 0.42500  0.22500  0.05000  Biso   1.000  Al
  Al3336   1.0000 0.42500  0.27500  0.07500  Biso   1.000  Al
  Al3337   1.0000 0.47500  0.22500  0.07500  Biso   1.000  Al
  Al3338   1.0000 0.47500  0.27500  0.05000  Biso   1.000  Al
  Al3339   1.0000 0.42500  0.22500  0.10000  Biso   1.000  Al
  Al3340   1.0000 0.42500  0.27500  0.12500  Biso   1.000  Al
  Al3341   1.0000 0.47500  0.22500  0.12500  Biso   1.000  Al
  Al3342   1.0000 0.47500  0.27500  0.10000  Biso   1.000  Al
  Al3343   1.0000 0.42500  0.22500  0.15000  Biso   1.000  Al
  Al3344   1.0000 0.42500  0.27500  0.17500  Biso   1.000  Al
  Al3345   1.0000 0.47500  0.22500  0.17500  Biso   1.000  Al
  Al3346   1.0000 0.47500  0.27500  0.15000  Biso   1.000  Al
  Al3347   1.0000 0.42500  0.22500  0.20000  Biso   1.000  Al
  Al3348   1.0000 0.42500  0.27500  0.22500  Biso   1.000  Al
  Al3349   1.0000 0.47500  0.22500  0.22500  Biso   1.000  Al
  Al3350   1.0000 0.47500  0.27500  0.20000  Biso   1.000  Al
  Al3351   1.0000 0.42500  0.22500  0.25000  Biso   1.000  Al
  Al3352   1.0000 0.42500  0.27500  0.27500  Biso   1.000  Al
  Al3353   1.0000 0.47500  0.22500  0.27500  Biso   1.000  Al
  Al3354   1.0000 0.47500  0.27500  0.25000  Biso   1.000  Al
  Al3355   1.0000 0.42500  0.22500  0.30000  Biso   1.000  Al
  Al3356   1.0000 0.42500  0.27500  0.32500  Biso   1.000  Al
  Al3357   1.0000 0.47500  0.22500  0.32500  Biso   1.000  Al
  Al3358   1.0000 0.47500  0.27500  0.30000  Biso   1.000  Al
  Al3359   1.0000 0.42500  0.22500  0.35000  Biso   1.000  Al
  Al3360   1.0000 0.42500  0.27500  0.37500  Biso   1.000  Al
  Al3361   1.0000 0.47500  0.22500  0.37500  Biso   1.000  Al
  Al3362   1.0000 0.47500  0.27500  0.35000  Biso   1.000  Al
  Al3363   1.0000 0.42500  0.22500  0.40000  Biso   1.000  Al
  Al3364   1.0000 0.42500  0.27500  0.42500  Biso   1.000  Al
  Al3365   1.0000 0.47500  0.22500  0.42500  Biso   1.000  Al
  Al3366   1.0000 0.47500  0.27500  0.40000  Biso   1.000  Al
  Al3367   1.0000 0.42500  0.22500  0.45000  Biso   1.000  Al
  Al3368   1.0000 0.42500  0.27500  0.47500  Biso   1.000  Al
  Al3369   1.0000 0.47500  0.22500  0.47500  Biso   1.000  Al
  Al3370   1.0000 0.47500  0.27500  0.45000  Biso   1.000  Al
  Al3371   1.0000 0.42500  0.22500  0.50000  Biso   1.000  Al
  Al3372   1.0000 0.42500  0.27500  0.52500  Biso   1.000  Al
  Al3373   1.0000 0.47500  0.22500  0.52500  Biso   1.000  Al
  Al3374   1.0000 0.47500  0.27500  0.50000  Biso   1.000  Al
  Al3375   1.0000 0.42500  0.22500  0.55000  Biso   1.000  Al
  Al3376   1.0000 0.42500  0.27500  0.57500  Biso   1.000  Al
  Al3377   1.0000 0.47500  0.22500  0.57500  Biso   1.000  Al
  Al3378   1.0000 0.47500  0.27500  0.55000  Biso   1.000  Al
  Al3379   1.0000 0.42500  0.22500  0.60000  Biso   1.000  Al
  Al3380   1.0000 0.42500  0.27500  0.62500  Biso   1.000  Al
  Al3381   1.0000 0.47500  0.22500  0.62500  Biso   1.000  Al
  Al3382   1.0000 0.47500  0.27500  0.60000  Biso   1.000  Al
  Al3383   1.0000 0.42500  0.22500  0.65000  Biso   1.000  Al
  Al3384   1.0000 0.42500  0.27500  0.67500  Biso   1.000  Al
  Al3385   1.0000 0.47500  0.22500  0.67500  Biso   1.000  Al
  Al3386   1.0000 0.47500  0.27500  0.65000  Biso   1.000  Al
  Al3387   1.0000 0.42500  0.22500  0.70000  Biso   1.000  Al
  Al3388   1.0000 0.42500  0.27500  0.72500  Biso   1.000  Al
  Al3389   1.0000 0.47500  0.22500  0.72500  Biso   1.000  Al
  Al3390   1.0000 0.47500  0.27500  0.70000  Biso   1.000  Al
  Al3391   1.0000 0.42500  0.22500  0.75000  Biso   1.000  Al
  Al3392   1.0000 0.42500  0.27500  0.77500  Biso   1.000  Al
  Al3393   1.0000 0.47500  0.22500  0.77500  Biso   1.000  Al
  Al3394   1.0000 0.47500  0.27500  0.75000  Biso   1.000  Al
  Al3395   1.0000 0.42500  0.22500  0.80000  Biso   1.000  Al
  Al3396   1.0000 0.42500  0.27500  0.82500  Biso   1.000  Al
  Al3397   1.0000 0.47500  0.22500  0.82500  Biso   1.000  Al
  Al3398   1.0000 0.47500  0.27500  0.80000  Biso   1.000  Al
  Al3399   1.0000 0.42500  0.22500  0.85000  Biso   1.000  Al
  Al3400   1.0000 0.42500  0.27500  0.87500  Biso   1.000  Al
  Al3401   1.0000 0.47500  0.22500  0.87500  Biso   1.000  Al
  Al3402   1.0000 0.47500  0.27500  0.85000  Biso   1.000  Al
  Al3403   1.0000 0.42500  0.22500  0.90000  Biso   1.000  Al
  Al3404   1.0000 0.42500  0.27500  0.92500  Biso   1.000  Al
  Al3405   1.0000 0.47500  0.22500  0.92500  Biso   1.000  Al
  Al3406   1.0000 0.47500  0.27500  0.90000  Biso   1.000  Al
  Al3407   1.0000 0.42500  0.22500  0.95000  Biso   1.000  Al
  Al3408   1.0000 0.42500  0.27500  0.97500  Biso   1.000  Al
  Al3409   1.0000 0.47500  0.22500  0.97500  Biso   1.000  Al
  Al3410   1.0000 0.47500  0.27500  0.95000  Biso   1.000  Al
  Al3411   1.0000 0.42500  0.32500  0.00000  Biso   1.000  Al
  Al3412   1.0000 0.42500  0.37500  0.02500  Biso   1.000  Al
  Al3413   1.0000 0.47500  0.32500  0.02500  Biso   1.000  Al
  Al3414   1.0000 0.47500  0.37500  0.00000  Biso   1.000  Al
  Al3415   1.0000 0.42500  0.32500  0.05000  Biso   1.000  Al
  Al3416   1.0000 0.42500  0.37500  0.07500  Biso   1.000  Al
  Al3417   1.0000 0.47500  0.32500  0.07500  Biso   1.000  Al
  Al3418   1.0000 0.47500  0.37500  0.05000  Biso   1.000  Al
  Al3419   1.0000 0.42500  0.32500  0.10000  Biso   1.000  Al
  Al3420   1.0000 0.42500  0.37500  0.12500  Biso   1.000  Al
  Al3421   1.0000 0.47500  0.32500  0.12500  Biso   1.000  Al
  Al3422   1.0000 0.47500  0.37500  0.10000  Biso   1.000  Al
  Al3423   1.0000 0.42500  0.32500  0.15000  Biso   1.000  Al
  Al3424   1.0000 0.42500  0.37500  0.17500  Biso   1.000  Al
  Al3425   1.0000 0.47500  0.32500  0.17500  Biso   1.000  Al
  Al3426   1.0000 0.47500  0.37500  0.15000  Biso   1.000  Al
  Al3427   1.0000 0.42500  0.32500  0.20000  Biso   1.000  Al
  Al3428   1.0000 0.42500  0.37500  0.22500  Biso   1.000  Al
  Al3429   1.0000 0.47500  0.32500  0.22500  Biso   1.000  Al
  Al3430   1.0000 0.47500  0.37500  0.20000  Biso   1.000  Al
  Al3431   1.0000 0.42500  0.32500  0.25000  Biso   1.000  Al
  Al3432   1.0000 0.42500  0.37500  0.27500  Biso   1.000  Al
  Al3433   1.0000 0.47500  0.32500  0.27500  Biso   1.000  Al
  Al3434   1.0000 0.47500  0.37500  0.25000  Biso   1.000  Al
  Al3435   1.0000 0.42500  0.32500  0.30000  Biso   1.000  Al
  Al3436   1.0000 0.42500  0.37500  0.32500  Biso   1.000  Al
  Al3437   1.0000 0.47500  0.32500  0.32500  Biso   1.000  Al
  Al3438   1.0000 0.47500  0.37500  0.30000  Biso   1.000  Al
  Al3439   1.0000 0.42500  0.32500  0.35000  Biso   1.000  Al
  Al3440   1.0000 0.42500  0.37500  0.37500  Biso   1.000  Al
  Al3441   1.0000 0.47500  0.32500  0.37500  Biso   1.000  Al
  Al3442   1.0000 0.47500  0.37500  0.35000  Biso   1.000  Al
  Al3443   1.0000 0.42500  0.32500  0.40000  Biso   1.000  Al
  Al3444   1.0000 0.42500  0.37500  0.42500  Biso   1.000  Al
  Al3445   1.0000 0.47500  0.32500  0.42500  Biso   1.000  Al
  Al3446   1.0000 0.47500  0.37500  0.40000  Biso   1.000  Al
  Al3447   1.0000 0.42500  0.32500  0.45000  Biso   1.000  Al
  Al3448   1.0000 0.42500  0.37500  0.47500  Biso   1.000  Al
  Al3449   1.0000 0.47500  0.32500  0.47500  Biso   1.000  Al
  Al3450   1.0000 0.47500  0.37500  0.45000  Biso   1.000  Al
  Al3451   1.0000 0.42500  0.32500  0.50000  Biso   1.000  Al
  Al3452   1.0000 0.42500  0.37500  0.52500  Biso   1.000  Al
  Al3453   1.0000 0.47500  0.32500  0.52500  Biso   1.000  Al
  Al3454   1.0000 0.47500  0.37500  0.50000  Biso   1.000  Al
  Al3455   1.0000 0.42500  0.32500  0.55000  Biso   1.000  Al
  Al3456   1.0000 0.42500  0.37500  0.57500  Biso   1.000  Al
  Al3457   1.0000 0.47500  0.32500  0.57500  Biso   1.000  Al
  Al3458   1.0000 0.47500  0.37500  0.55000  Biso   1.000  Al
  Al3459   1.0000 0.42500  0.32500  0.60000  Biso   1.000  Al
  Al3460   1.0000 0.42500  0.37500  0.62500  Biso   1.000  Al
  Al3461   1.0000 0.47500  0.32500  0.62500  Biso   1.000  Al
  Al3462   1.0000 0.47500  0.37500  0.60000  Biso   1.000  Al
  Al3463   1.0000 0.42500  0.32500  0.65000  Biso   1.000  Al
  Al3464   1.0000 0.42500  0.37500  0.67500  Biso   1.000  Al
  Al3465   1.0000 0.47500  0.32500  0.67500  Biso   1.000  Al
  Al3466   1.0000 0.47500  0.37500  0.65000  Biso   1.000  Al
  Al3467   1.0000 0.42500  0.32500  0.70000  Biso   1.000  Al
  Al3468   1.0000 0.42500  0.37500  0.72500  Biso   1.000  Al
  Al3469   1.0000 0.47500  0.32500  0.72500  Biso   1.000  Al
  Al3470   1.0000 0.47500  0.37500  0.70000  Biso   1.000  Al
  Al3471   1.0000 0.42500  0.32500  0.75000  Biso   1.000  Al
  Al3472   1.0000 0.42500  0.37500  0.77500  Biso   1.000  Al
  Al3473   1.0000 0.47500  0.32500  0.77500  Biso   1.000  Al
  Al3474   1.0000 0.47500  0.37500  0.75000  Biso   1.000  Al
  Al3475   1.0000 0.42500  0.32500  0.80000  Biso   1.000  Al
  Al3476   1.0000 0.42500  0.37500  0.82500  Biso   1.000  Al
  Al3477   1.0000 0.47500  0.32500  0.82500  Biso   1.000  Al
  Al3478   1.0000 0.47500  0.37500  0.80000  Biso   1.000  Al
  Al3479   1.0000 0.42500  0.32500  0.85000  Biso   1.000  Al
  Al3480   1.0000 0.42500  0.37500  0.87500  Biso   1.000  Al
  Al3481   1.0000 0.47500  0.32500  0.87500  Biso   1.000  Al
  Al3482   1.0000 0.47500  0.37500  0.85000  Biso   1.000  Al
  Al3483   1.0000 0.42500  0.32500  0.90000  Biso   1.000  Al
  Al3484   1.0000 0.42500  0.37500  0.92500  Biso   1.000  Al
  Al3485   1.0000 0.47500  0.32500  0.92500  Biso   1.000  Al
  Al3486   1.0000 0.47500  0.37500  0.90000  Biso   1.000  Al
  Al3487   1.0000 0.42500  0.32500  0.95000  Biso   1.000  Al
  Al3488   1.0000 0.42500  0.37500  0.97500  Biso   1.000  Al
  Al3489   1.0000 0.47500  0.32500  0.97500  Biso   1.000  Al
  Al3490   1.0000 0.47500  0.37500  0.95000  Biso   1.000  Al
  Al3491   1.0000 0.42500  0.42500  0.00000  Biso   1.000  Al
  Al3492   1.0000 0.42500  0.47500  0.02500  Biso   1.000  Al
  Au31     1.0000 0.47500  0.42500  0.02500  Biso   1.000  Au
  Au32     1.0000 0.47500  0.47500  0.00000  Biso   1.000  Au
  Al3493   1.0000 0.42500  0.42500  0.05000  Biso   1.000  Al
  Al3494   1.0000 0.42500  0.47500  0.07500  Biso   1.000  Al
  Au33     1.0000 0.47500  0.42500  0.07500  Biso   1.000  Au
  Au34     1.0000 0.47500  0.47500  0.05000  Biso   1.000  Au
  Al3495   1.0000 0.42500  0.42500  0.10000  Biso   1.000  Al
  Al3496   1.0000 0.42500  0.47500  0.12500  Biso   1.000  Al
  Au35     1.0000 0.47500  0.42500  0.12500  Biso   1.000  Au
  Au36     1.0000 0.47500  0.47500  0.10000  Biso   1.000  Au
  Al3497   1.0000 0.42500  0.42500  0.15000  Biso   1.000  Al
  Al3498   1.0000 0.42500  0.47500  0.17500  Biso   1.000  Al
  Au37     1.0000 0.47500  0.42500  0.17500  Biso   1.000  Au
  Au38     1.0000 0.47500  0.47500  0.15000  Biso   1.000  Au
  Al3499   1.0000 0.42500  0.42500  0.20000  Biso   1.000  Al
  Al3500   1.0000 0.42500  0.47500  0.22500  Biso   1.000  Al
  Au39     1.0000 0.47500  0.42500  0.22500  Biso   1.000  Au
  Au40     1.0000 0.47500  0.47500  0.20000  Biso   1.000  Au
  Al3501   1.0000 0.42500  0.42500  0.25000  Biso   1.000  Al
  Al3502   1.0000 0.42500  0.47500  0.27500  Biso   1.000  Al
  Au41     1.0000 0.47500  0.42500  0.27500  Biso   1.000  Au
  Au42     1.0000 0.47500  0.47500  0.25000  Biso   1.000  Au
  Al3503   1.0000 0.42500  0.42500  0.30000  Biso   1.000  Al
  Al3504   1.0000 0.42500  0.47500  0.32500  Biso   1.000  Al
  Au43     1.0000 0.47500  0.42500  0.32500  Biso   1.000  Au
  Au44     1.0000 0.47500  0.47500  0.30000  Biso   1.000  Au
  Al3505   1.0000 0.42500  0.42500  0.35000  Biso   1.000  Al
  Al3506   1.0000 0.42500  0.47500  0.37500  Biso   1.000  Al
  Au45     1.0000 0.47500  0.42500  0.37500  Biso   1.000  Au
  Au46     1.0000 0.47500  0.47500  0.35000  Biso   1.000  Au
  Al3507   1.0000 0.42500  0.42500  0.40000  Biso   1.000  Al
  Al3508   1.0000 0.42500  0.47500  0.42500  Biso   1.000  Al
  Au47     1.0000 0.47500  0.42500  0.42500  Biso   1.000  Au
  Au48     1.0000 0.47500  0.47500  0.40000  Biso   1.000  Au
  Al3509   1.0000 0.42500  0.42500  0.45000  Biso   1.000  Al
  Al3510   1.0000 0.42500  0.47500  0.47500  Biso   1.000  Al
  Au49     1.0000 0.47500  0.42500  0.47500  Biso   1.000  Au
  Au50     1.0000 0.47500  0.47500  0.45000  Biso   1.000  Au
  Al3511   1.0000 0.42500  0.42500  0.50000  Biso   1.000  Al
  Al3512   1.0000 0.42500  0.47500  0.52500  Biso   1.000  Al
  Au51     1.0000 0.47500  0.42500  0.52500  Biso   1.000  Au
  Au52     1.0000 0.47500  0.47500  0.50000  Biso   1.000  Au
  Al3513   1.0000 0.42500  0.42500  0.55000  Biso   1.000  Al
  Al3514   1.0000 0.42500  0.47500  0.57500  Biso   1.000  Al
  Au53     1.0000 0.47500  0.42500  0.57500  Biso   1.000  Au
  Au54     1.0000 0.47500  0.47500  0.55000  Biso   1.000  Au
  Al3515   1.0000 0.42500  0.42500  0.60000  Biso   1.000  Al
  Al3516   1.0000 0.42500  0.47500  0.62500  Biso   1.000  Al
  Au55     1.0000 0.47500  0.42500  0.62500  Biso   1.000  Au
  Au56     1.0000 0.47500  0.47500  0.60000  Biso   1.000  Au
  Al3517   1.0000 0.42500  0.42500  0.65000  Biso   1.000  Al
  Al3518   1.0000 0.42500  0.47500  0.67500  Biso   1.000  Al
  Au57     1.0000 0.47500  0.42500  0.67500  Biso   1.000  Au
  Au58     1.0000 0.47500  0.47500  0.65000  Biso   1.000  Au
  Al3519   1.0000 0.42500  0.42500  0.70000  Biso   1.000  Al
  Al3520   1.0000 0.42500  0.47500  0.72500  Biso   1.000  Al
  Au59     1.0000 0.47500  0.42500  0.72500  Biso   1.000  Au
  Au60     1.0000 0.47500  0.47500  0.70000  Biso   1.000  Au
  Al3521   1.0000 0.42500  0.42500  0.75000  Biso   1.000  Al
  Al3522   1.0000 0.42500  0.47500  0.77500  Biso   1.000  Al
  Au61     1.0000 0.47500  0.42500  0.77500  Biso   1.000  Au
  Au62     1.0000 0.47500  0.47500  0.75000  Biso   1.000  Au
  Al3523   1.0000 0.42500  0.42500  0.80000  Biso   1.000  Al
  Al3524   1.0000 0.42500  0.47500  0.82500  Biso   1.000  Al
  Au63     1.0000 0.47500  0.42500  0.82500  Biso   1.000  Au
  Au64     1.0000 0.47500  0.47500  0.80000  Biso   1.000  Au
  Al3525   1.0000 0.42500  0.42500  0.85000  Biso   1.000  Al
  Al3526   1.0000 0.42500  0.47500  0.87500  Biso   1.000  Al
  Au65     1.0000 0.47500  0.42500  0.87500  Biso   1.000  Au
  Au66     1.0000 0.47500  0.47500  0.85000  Biso   1.000  Au
  Al3527   1.0000 0.42500  0.42500  0.90000  Biso   1.000  Al
  Al3528   1.0000 0.42500  0.47500  0.92500  Biso   1.000  Al
  Au67     1.0000 0.47500  0.42500  0.92500  Biso   1.000  Au
  Au68     1.0000 0.47500  0.47500  0.90000  Biso   1.000  Au
  Al3529   1.0000 0.42500  0.42500  0.95000  Biso   1.000  Al
  Al3530   1.0000 0.42500  0.47500  0.97500  Biso   1.000  Al
  Au69     1.0000 0.47500  0.42500  0.97500  Biso   1.000  Au
  Au70     1.0000 0.47500  0.47500  0.95000  Biso   1.000  Au
  Al3531   1.0000 0.42500  0.52500  0.00000  Biso   1.000  Al
  Al3532   1.0000 0.42500  0.57500  0.02500  Biso   1.000  Al
  Au71     1.0000 0.47500  0.52500  0.02500  Biso   1.000  Au
  Au72     1.0000 0.47500  0.57500  0.00000  Biso   1.000  Au
  Al3533   1.0000 0.42500  0.52500  0.05000  Biso   1.000  Al
  Al3534   1.0000 0.42500  0.57500  0.07500  Biso   1.000  Al
  Au73     1.0000 0.47500  0.52500  0.07500  Biso   1.000  Au
  Au74     1.0000 0.47500  0.57500  0.05000  Biso   1.000  Au
  Al3535   1.0000 0.42500  0.52500  0.10000  Biso   1.000  Al
  Al3536   1.0000 0.42500  0.57500  0.12500  Biso   1.000  Al
  Au75     1.0000 0.47500  0.52500  0.12500  Biso   1.000  Au
  Au76     1.0000 0.47500  0.57500  0.10000  Biso   1.000  Au
  Al3537   1.0000 0.42500  0.52500  0.15000  Biso   1.000  Al
  Al3538   1.0000 0.42500  0.57500  0.17500  Biso   1.000  Al
  Au77     1.0000 0.47500  0.52500  0.17500  Biso   1.000  Au
  Au78     1.0000 0.47500  0.57500  0.15000  Biso   1.000  Au
  Al3539   1.0000 0.42500  0.52500  0.20000  Biso   1.000  Al
  Al3540   1.0000 0.42500  0.57500  0.22500  Biso   1.000  Al
  Au79     1.0000 0.47500  0.52500  0.22500  Biso   1.000  Au
  Au80     1.0000 0.47500  0.57500  0.20000  Biso   1.000  Au
  Al3541   1.0000 0.42500  0.52500  0.25000  Biso   1.000  Al
  Al3542   1.0000 0.42500  0.57500  0.27500  Biso   1.000  Al
  Au81     1.0000 0.47500  0.52500  0.27500  Biso   1.000  Au
  Au82     1.0000 0.47500  0.57500  0.25000  Biso   1.000  Au
  Al3543   1.0000 0.42500  0.52500  0.30000  Biso   1.000  Al
  Al3544   1.0000 0.42500  0.57500  0.32500  Biso   1.000  Al
  Au83     1.0000 0.47500  0.52500  0.32500  Biso   1.000  Au
  Au84     1.0000 0.47500  0.57500  0.30000  Biso   1.000  Au
  Al3545   1.0000 0.42500  0.52500  0.35000  Biso   1.000  Al
  Al3546   1.0000 0.42500  0.57500  0.37500  Biso   1.000  Al
  Au85     1.0000 0.47500  0.52500  0.37500  Biso   1.000  Au
  Au86     1.0000 0.47500  0.57500  0.35000  Biso   1.000  Au
  Al3547   1.0000 0.42500  0.52500  0.40000  Biso   1.000  Al
  Al3548   1.0000 0.42500  0.57500  0.42500  Biso   1.000  Al
  Au87     1.0000 0.47500  0.52500  0.42500  Biso   1.000  Au
  Au88     1.0000 0.47500  0.57500  0.40000  Biso   1.000  Au
  Al3549   1.0000 0.42500  0.52500  0.45000  Biso   1.000  Al
  Al3550   1.0000 0.42500  0.57500  0.47500  Biso   1.000  Al
  Au89     1.0000 0.47500  0.52500  0.47500  Biso   1.000  Au
  Au90     1.0000 0.47500  0.57500  0.45000  Biso   1.000  Au
  Al3551   1.0000 0.42500  0.52500  0.50000  Biso   1.000  Al
  Al3552   1.0000 0.42500  0.57500  0.52500  Biso   1.000  Al
  Au91     1.0000 0.47500  0.52500  0.52500  Biso   1.000  Au
  Au92     1.0000 0.47500  0.57500  0.50000  Biso   1.000  Au
  Al3553   1.0000 0.42500  0.52500  0.55000  Biso   1.000  Al
  Al3554   1.0000 0.42500  0.57500  0.57500  Biso   1.000  Al
  Au93     1.0000 0.47500  0.52500  0.57500  Biso   1.000  Au
  Au94     1.0000 0.47500  0.57500  0.55000  Biso   1.000  Au
  Al3555   1.0000 0.42500  0.52500  0.60000  Biso   1.000  Al
  Al3556   1.0000 0.42500  0.57500  0.62500  Biso   1.000  Al
  Au95     1.0000 0.47500  0.52500  0.62500  Biso   1.000  Au
  Au96     1.0000 0.47500  0.57500  0.60000  Biso   1.000  Au
  Al3557   1.0000 0.42500  0.52500  0.65000  Biso   1.000  Al
  Al3558   1.0000 0.42500  0.57500  0.67500  Biso   1.000  Al
  Au97     1.0000 0.47500  0.52500  0.67500  Biso   1.000  Au
  Au98     1.0000 0.47500  0.57500  0.65000  Biso   1.000  Au
  Al3559   1.0000 0.42500  0.52500  0.70000  Biso   1.000  Al
  Al3560   1.0000 0.42500  0.57500  0.72500  Biso   1.000  Al
  Au99     1.0000 0.47500  0.52500  0.72500  Biso   1.000  Au
  Au100    1.0000 0.47500  0.57500  0.70000  Biso   1.000  Au
  Al3561   1.0000 0.42500  0.52500  0.75000  Biso   1.000  Al
  Al3562   1.0000 0.42500  0.57500  0.77500  Biso   1.000  Al
  Au101    1.0000 0.47500  0.52500  0.77500  Biso   1.000  Au
  Au102    1.0000 0.47500  0.57500  0.75000  Biso   1.000  Au
  Al3563   1.0000 0.42500  0.52500  0.80000  Biso   1.000  Al
  Al3564   1.0000 0.42500  0.57500  0.82500  Biso   1.000  Al
  Au103    1.0000 0.47500  0.52500  0.82500  Biso   1.000  Au
  Au104    1.0000 0.47500  0.57500  0.80000  Biso   1.000  Au
  Al3565   1.0000 0.42500  0.52500  0.85000  Biso   1.000  Al
  Al3566   1.0000 0.42500  0.57500  0.87500  Biso   1.000  Al
  Au105    1.0000 0.47500  0.52500  0.87500  Biso   1.000  Au
  Au106    1.0000 0.47500  0.57500  0.85000  Biso   1.000  Au
  Al3567   1.0000 0.42500  0.52500  0.90000  Biso   1.000  Al
  Al3568   1.0000 0.42500  0.57500  0.92500  Biso   1.000  Al
  Au107    1.0000 0.47500  0.52500  0.92500  Biso   1.000  Au
  Au108    1.0000 0.47500  0.57500  0.90000  Biso   1.000  Au
  Al3569   1.0000 0.42500  0.52500  0.95000  Biso   1.000  Al
  Al3570   1.0000 0.42500  0.57500  0.97500  Biso   1.000  Al
  Au109    1.0000 0.47500  0.52500  0.97500  Biso   1.000  Au
  Au110    1.0000 0.47500  0.57500  0.95000  Biso   1.000  Au
  Al3571   1.0000 0.42500  0.62500  0.00000  Biso   1.000  Al
  Al3572   1.0000 0.42500  0.67500  0.02500  Biso   1.000  Al
  Al3573   1.0000 0.47500  0.62500  0.02500  Biso   1.000  Al
  Al3574   1.0000 0.47500  0.67500  0.00000  Biso   1.000  Al
  Al3575   1.0000 0.42500  0.62500  0.05000  Biso   1.000  Al
  Al3576   1.0000 0.42500  0.67500  0.07500  Biso   1.000  Al
  Al3577   1.0000 0.47500  0.62500  0.07500  Biso   1.000  Al
  Al3578   1.0000 0.47500  0.67500  0.05000  Biso   1.000  Al
  Al3579   1.0000 0.42500  0.62500  0.10000  Biso   1.000  Al
  Al3580   1.0000 0.42500  0.67500  0.12500  Biso   1.000  Al
  Al3581   1.0000 0.47500  0.62500  0.12500  Biso   1.000  Al
  Al3582   1.0000 0.47500  0.67500  0.10000  Biso   1.000  Al
  Al3583   1.0000 0.42500  0.62500  0.15000  Biso   1.000  Al
  Al3584   1.0000 0.42500  0.67500  0.17500  Biso   1.000  Al
  Al3585   1.0000 0.47500  0.62500  0.17500  Biso   1.000  Al
  Al3586   1.0000 0.47500  0.67500  0.15000  Biso   1.000  Al
  Al3587   1.0000 0.42500  0.62500  0.20000  Biso   1.000  Al
  Al3588   1.0000 0.42500  0.67500  0.22500  Biso   1.000  Al
  Al3589   1.0000 0.47500  0.62500  0.22500  Biso   1.000  Al
  Al3590   1.0000 0.47500  0.67500  0.20000  Biso   1.000  Al
  Al3591   1.0000 0.42500  0.62500  0.25000  Biso   1.000  Al
  Al3592   1.0000 0.42500  0.67500  0.27500  Biso   1.000  Al
  Al3593   1.0000 0.47500  0.62500  0.27500  Biso   1.000  Al
  Al3594   1.0000 0.47500  0.67500  0.25000  Biso   1.000  Al
  Al3595   1.0000 0.42500  0.62500  0.30000  Biso   1.000  Al
  Al3596   1.0000 0.42500  0.67500  0.32500  Biso   1.000  Al
  Al3597   1.0000 0.47500  0.62500  0.32500  Biso   1.000  Al
  Al3598   1.0000 0.47500  0.67500  0.30000  Biso   1.000  Al
  Al3599   1.0000 0.42500  0.62500  0.35000  Biso   1.000  Al
  Al3600   1.0000 0.42500  0.67500  0.37500  Biso   1.000  Al
  Al3601   1.0000 0.47500  0.62500  0.37500  Biso   1.000  Al
  Al3602   1.0000 0.47500  0.67500  0.35000  Biso   1.000  Al
  Al3603   1.0000 0.42500  0.62500  0.40000  Biso   1.000  Al
  Al3604   1.0000 0.42500  0.67500  0.42500  Biso   1.000  Al
  Al3605   1.0000 0.47500  0.62500  0.42500  Biso   1.000  Al
  Al3606   1.0000 0.47500  0.67500  0.40000  Biso   1.000  Al
  Al3607   1.0000 0.42500  0.62500  0.45000  Biso   1.000  Al
  Al3608   1.0000 0.42500  0.67500  0.47500  Biso   1.000  Al
  Al3609   1.0000 0.47500  0.62500  0.47500  Biso   1.000  Al
  Al3610   1.0000 0.47500  0.67500  0.45000  Biso   1.000  Al
  Al3611   1.0000 0.42500  0.62500  0.50000  Biso   1.000  Al
  Al3612   1.0000 0.42500  0.67500  0.52500  Biso   1.000  Al
  Al3613   1.0000 0.47500  0.62500  0.52500  Biso   1.000  Al
  Al3614   1.0000 0.47500  0.67500  0.50000  Biso   1.000  Al
  Al3615   1.0000 0.42500  0.62500  0.55000  Biso   1.000  Al
  Al3616   1.0000 0.42500  0.67500  0.57500  Biso   1.000  Al
  Al3617   1.0000 0.47500  0.62500  0.57500  Biso   1.000  Al
  Al3618   1.0000 0.47500  0.67500  0.55000  Biso   1.000  Al
  Al3619   1.0000 0.42500  0.62500  0.60000  Biso   1.000  Al
  Al3620   1.0000 0.42500  0.67500  0.62500  Biso   1.000  Al
  Al3621   1.0000 0.47500  0.62500  0.62500  Biso   1.000  Al
  Al3622   1.0000 0.47500  0.67500  0.60000  Biso   1.000  Al
  Al3623   1.0000 0.42500  0.62500  0.65000  Biso   1.000  Al
  Al3624   1.0000 0.42500  0.67500  0.67500  Biso   1.000  Al
  Al3625   1.0000 0.47500  0.62500  0.67500  Biso   1.000  Al
  Al3626   1.0000 0.47500  0.67500  0.65000  Biso   1.000  Al
  Al3627   1.0000 0.42500  0.62500  0.70000  Biso   1.000  Al
  Al3628   1.0000 0.42500  0.67500  0.72500  Biso   1.000  Al
  Al3629   1.0000 0.47500  0.62500  0.72500  Biso   1.000  Al
  Al3630   1.0000 0.47500  0.67500  0.70000  Biso   1.000  Al
  Al3631   1.0000 0.42500  0.62500  0.75000  Biso   1.000  Al
  Al3632   1.0000 0.42500  0.67500  0.77500  Biso   1.000  Al
  Al3633   1.0000 0.47500  0.62500  0.77500  Biso   1.000  Al
  Al3634   1.0000 0.47500  0.67500  0.75000  Biso   1.000  Al
  Al3635   1.0000 0.42500  0.62500  0.80000  Biso   1.000  Al
  Al3636   1.0000 0.42500  0.67500  0.82500  Biso   1.000  Al
  Al3637   1.0000 0.47500  0.62500  0.82500  Biso   1.000  Al
  Al3638   1.0000 0.47500  0.67500  0.80000  Biso   1.000  Al
  Al3639   1.0000 0.42500  0.62500  0.85000  Biso   1.000  Al
  Al3640   1.0000 0.42500  0.67500  0.87500  Biso   1.000  Al
  Al3641   1.0000 0.47500  0.62500  0.87500  Biso   1.000  Al
  Al3642   1.0000 0.47500  0.67500  0.85000  Biso   1.000  Al
  Al3643   1.0000 0.42500  0.62500  0.90000  Biso   1.000  Al
  Al3644   1.0000 0.42500  0.67500  0.92500  Biso   1.000  Al
  Al3645   1.0000 0.47500  0.62500  0.92500  Biso   1.000  Al
  Al3646   1.0000 0.47500  0.67500  0.90000  Biso   1.000  Al
  Al3647   1.0000 0.42500  0.62500  0.95000  Biso   1.000  Al
  Al3648   1.0000 0.42500  0.67500  0.97500  Biso   1.000  Al
  Al3649   1.0000 0.47500  0.62500  0.97500  Biso   1.000  Al
  Al3650   1.0000 0.47500  0.67500  0.95000  Biso   1.000  Al
  Al3651   1.0000 0.42500  0.72500  0.00000  Biso   1.000  Al
  Al3652   1.0000 0.42500  0.77500  0.02500  Biso   1.000  Al
  Al3653   1.0000 0.47500  0.72500  0.02500  Biso   1.000  Al
  Al3654   1.0000 0.47500  0.77500  0.00000  Biso   1.000  Al
  Al3655   1.0000 0.42500  0.72500  0.05000  Biso   1.000  Al
  Al3656   1.0000 0.42500  0.77500  0.07500  Biso   1.000  Al
  Al3657   1.0000 0.47500  0.72500  0.07500  Biso   1.000  Al
  Al3658   1.0000 0.47500  0.77500  0.05000  Biso   1.000  Al
  Al3659   1.0000 0.42500  0.72500  0.10000  Biso   1.000  Al
  Al3660   1.0000 0.42500  0.77500  0.12500  Biso   1.000  Al
  Al3661   1.0000 0.47500  0.72500  0.12500  Biso   1.000  Al
  Al3662   1.0000 0.47500  0.77500  0.10000  Biso   1.000  Al
  Al3663   1.0000 0.42500  0.72500  0.15000  Biso   1.000  Al
  Al3664   1.0000 0.42500  0.77500  0.17500  Biso   1.000  Al
  Al3665   1.0000 0.47500  0.72500  0.17500  Biso   1.000  Al
  Al3666   1.0000 0.47500  0.77500  0.15000  Biso   1.000  Al
  Al3667   1.0000 0.42500  0.72500  0.20000  Biso   1.000  Al
  Al3668   1.0000 0.42500  0.77500  0.22500  Biso   1.000  Al
  Al3669   1.0000 0.47500  0.72500  0.22500  Biso   1.000  Al
  Al3670   1.0000 0.47500  0.77500  0.20000  Biso   1.000  Al
  Al3671   1.0000 0.42500  0.72500  0.25000  Biso   1.000  Al
  Al3672   1.0000 0.42500  0.77500  0.27500  Biso   1.000  Al
  Al3673   1.0000 0.47500  0.72500  0.27500  Biso   1.000  Al
  Al3674   1.0000 0.47500  0.77500  0.25000  Biso   1.000  Al
  Al3675   1.0000 0.42500  0.72500  0.30000  Biso   1.000  Al
  Al3676   1.0000 0.42500  0.77500  0.32500  Biso   1.000  Al
  Al3677   1.0000 0.47500  0.72500  0.32500  Biso   1.000  Al
  Al3678   1.0000 0.47500  0.77500  0.30000  Biso   1.000  Al
  Al3679   1.0000 0.42500  0.72500  0.35000  Biso   1.000  Al
  Al3680   1.0000 0.42500  0.77500  0.37500  Biso   1.000  Al
  Al3681   1.0000 0.47500  0.72500  0.37500  Biso   1.000  Al
  Al3682   1.0000 0.47500  0.77500  0.35000  Biso   1.000  Al
  Al3683   1.0000 0.42500  0.72500  0.40000  Biso   1.000  Al
  Al3684   1.0000 0.42500  0.77500  0.42500  Biso   1.000  Al
  Al3685   1.0000 0.47500  0.72500  0.42500  Biso   1.000  Al
  Al3686   1.0000 0.47500  0.77500  0.40000  Biso   1.000  Al
  Al3687   1.0000 0.42500  0.72500  0.45000  Biso   1.000  Al
  Al3688   1.0000 0.42500  0.77500  0.47500  Biso   1.000  Al
  Al3689   1.0000 0.47500  0.72500  0.47500  Biso   1.000  Al
  Al3690   1.0000 0.47500  0.77500  0.45000  Biso   1.000  Al
  Al3691   1.0000 0.42500  0.72500  0.50000  Biso   1.000  Al
  Al3692   1.0000 0.42500  0.77500  0.52500  Biso   1.000  Al
  Al3693   1.0000 0.47500  0.72500  0.52500  Biso   1.000  Al
  Al3694   1.0000 0.47500  0.77500  0.50000  Biso   1.000  Al
  Al3695   1.0000 0.42500  0.72500  0.55000  Biso   1.000  Al
  Al3696   1.0000 0.42500  0.77500  0.57500  Biso   1.000  Al
  Al3697   1.0000 0.47500  0.72500  0.57500  Biso   1.000  Al
  Al3698   1.0000 0.47500  0.77500  0.55000  Biso   1.000  Al
  Al3699   1.0000 0.42500  0.72500  0.60000  Biso   1.000  Al
  Al3700   1.0000 0.42500  0.77500  0.62500  Biso   1.000  Al
  Al3701   1.0000 0.47500  0.72500  0.62500  Biso   1.000  Al
  Al3702   1.0000 0.47500  0.77500  0.60000  Biso   1.000  Al
  Al3703   1.0000 0.42500  0.72500  0.65000  Biso   1.000  Al
  Al3704   1.0000 0.42500  0.77500  0.67500  Biso   1.000  Al
  Al3705   1.0000 0.47500  0.72500  0.67500  Biso   1.000  Al
  Al3706   1.0000 0.47500  0.77500  0.65000  Biso   1.000  Al
  Al3707   1.0000 0.42500  0.72500  0.70000  Biso   1.000  Al
  Al3708   1.0000 0.42500  0.77500  0.72500  Biso   1.000  Al
  Al3709   1.0000 0.47500  0.72500  0.72500  Biso   1.000  Al
  Al3710   1.0000 0.47500  0.77500  0.70000  Biso   1.000  Al
  Al3711   1.0000 0.42500  0.72500  0.75000  Biso   1.000  Al
  Al3712   1.0000 0.42500  0.77500  0.77500  Biso   1.000  Al
  Al3713   1.0000 0.47500  0.72500  0.77500  Biso   1.000  Al
  Al3714   1.0000 0.47500  0.77500  0.75000  Biso   1.000  Al
  Al3715   1.0000 0.42500  0.72500  0.80000  Biso   1.000  Al
  Al3716   1.0000 0.42500  0.77500  0.82500  Biso   1.000  Al
  Al3717   1.0000 0.47500  0.72500  0.82500  Biso   1.000  Al
  Al3718   1.0000 0.47500  0.77500  0.80000  Biso   1.000  Al
  Al3719   1.0000 0.42500  0.72500  0.85000  Biso   1.000  Al
  Al3720   1.0000 0.42500  0.77500  0.87500  Biso   1.000  Al
  Al3721   1.0000 0.47500  0.72500  0.87500  Biso   1.000  Al
  Al3722   1.0000 0.47500  0.77500  0.85000  Biso   1.000  Al
  Al3723   1.0000 0.42500  0.72500  0.90000  Biso   1.000  Al
  Al3724   1.0000 0.42500  0.77500  0.92500  Biso   1.000  Al
  Al3725   1.0000 0.47500  0.72500  0.92500  Biso   1.000  Al
  Al3726   1.0000 0.47500  0.77500  0.90000  Biso   1.000  Al
  Al3727   1.0000 0.42500  0.72500  0.95000  Biso   1.000  Al
  Al3728   1.0000 0.42500  0.77500  0.97500  Biso   1.000  Al
  Al3729   1.0000 0.47500  0.72500  0.97500  Biso   1.000  Al
  Al3730   1.0000 0.47500  0.77500  0.95000  Biso   1.000  Al
  Al3731   1.0000 0.42500  0.82500  0.00000  Biso   1.000  Al
  Al3732   1.0000 0.42500  0.87500  0.02500  Biso   1.000  Al
  Al3733   1.0000 0.47500  0.82500  0.02500  Biso   1.000  Al
  Al3734   1.0000 0.47500  0.87500  0.00000  Biso   1.000  Al
  Al3735   1.0000 0.42500  0.82500  0.05000  Biso   1.000  Al
  Al3736   1.0000 0.42500  0.87500  0.07500  Biso   1.000  Al
  Al3737   1.0000 0.47500  0.82500  0.07500  Biso   1.000  Al
  Al3738   1.0000 0.47500  0.87500  0.05000  Biso   1.000  Al
  Al3739   1.0000 0.42500  0.82500  0.10000  Biso   1.000  Al
  Al3740   1.0000 0.42500  0.87500  0.12500  Biso   1.000  Al
  Al3741   1.0000 0.47500  0.82500  0.12500  Biso   1.000  Al
  Al3742   1.0000 0.47500  0.87500  0.10000  Biso   1.000  Al
  Al3743   1.0000 0.42500  0.82500  0.15000  Biso   1.000  Al
  Al3744   1.0000 0.42500  0.87500  0.17500  Biso   1.000  Al
  Al3745   1.0000 0.47500  0.82500  0.17500  Biso   1.000  Al
  Al3746   1.0000 0.47500  0.87500  0.15000  Biso   1.000  Al
  Al3747   1.0000 0.42500  0.82500  0.20000  Biso   1.000  Al
  Al3748   1.0000 0.42500  0.87500  0.22500  Biso   1.000  Al
  Al3749   1.0000 0.47500  0.82500  0.22500  Biso   1.000  Al
  Al3750   1.0000 0.47500  0.87500  0.20000  Biso   1.000  Al
  Al3751   1.0000 0.42500  0.82500  0.25000  Biso   1.000  Al
  Al3752   1.0000 0.42500  0.87500  0.27500  Biso   1.000  Al
  Al3753   1.0000 0.47500  0.82500  0.27500  Biso   1.000  Al
  Al3754   1.0000 0.47500  0.87500  0.25000  Biso   1.000  Al
  Al3755   1.0000 0.42500  0.82500  0.30000  Biso   1.000  Al
  Al3756   1.0000 0.42500  0.87500  0.32500  Biso   1.000  Al
  Al3757   1.0000 0.47500  0.82500  0.32500  Biso   1.000  Al
  Al3758   1.0000 0.47500  0.87500  0.30000  Biso   1.000  Al
  Al3759   1.0000 0.42500  0.82500  0.35000  Biso   1.000  Al
  Al3760   1.0000 0.42500  0.87500  0.37500  Biso   1.000  Al
  Al3761   1.0000 0.47500  0.82500  0.37500  Biso   1.000  Al
  Al3762   1.0000 0.47500  0.87500  0.35000  Biso   1.000  Al
  Al3763   1.0000 0.42500  0.82500  0.40000  Biso   1.000  Al
  Al3764   1.0000 0.42500  0.87500  0.42500  Biso   1.000  Al
  Al3765   1.0000 0.47500  0.82500  0.42500  Biso   1.000  Al
  Al3766   1.0000 0.47500  0.87500  0.40000  Biso   1.000  Al
  Al3767   1.0000 0.42500  0.82500  0.45000  Biso   1.000  Al
  Al3768   1.0000 0.42500  0.87500  0.47500  Biso   1.000  Al
  Al3769   1.0000 0.47500  0.82500  0.47500  Biso   1.000  Al
  Al3770   1.0000 0.47500  0.87500  0.45000  Biso   1.000  Al
  Al3771   1.0000 0.42500  0.82500  0.50000  Biso   1.000  Al
  Al3772   1.0000 0.42500  0.87500  0.52500  Biso   1.000  Al
  Al3773   1.0000 0.47500  0.82500  0.52500  Biso   1.000  Al
  Al3774   1.0000 0.47500  0.87500  0.50000  Biso   1.000  Al
  Al3775   1.0000 0.42500  0.82500  0.55000  Biso   1.000  Al
  Al3776   1.0000 0.42500  0.87500  0.57500  Biso   1.000  Al
  Al3777   1.0000 0.47500  0.82500  0.57500  Biso   1.000  Al
  Al3778   1.0000 0.47500  0.87500  0.55000  Biso   1.000  Al
  Al3779   1.0000 0.42500  0.82500  0.60000  Biso   1.000  Al
  Al3780   1.0000 0.42500  0.87500  0.62500  Biso   1.000  Al
  Al3781   1.0000 0.47500  0.82500  0.62500  Biso   1.000  Al
  Al3782   1.0000 0.47500  0.87500  0.60000  Biso   1.000  Al
  Al3783   1.0000 0.42500  0.82500  0.65000  Biso   1.000  Al
  Al3784   1.0000 0.42500  0.87500  0.67500  Biso   1.000  Al
  Al3785   1.0000 0.47500  0.82500  0.67500  Biso   1.000  Al
  Al3786   1.0000 0.47500  0.87500  0.65000  Biso   1.000  Al
  Al3787   1.0000 0.42500  0.82500  0.70000  Biso   1.000  Al
  Al3788   1.0000 0.42500  0.87500  0.72500  Biso   1.000  Al
  Al3789   1.0000 0.47500  0.82500  0.72500  Biso   1.000  Al
  Al3790   1.0000 0.47500  0.87500  0.70000  Biso   1.000  Al
  Al3791   1.0000 0.42500  0.82500  0.75000  Biso   1.000  Al
  Al3792   1.0000 0.42500  0.87500  0.77500  Biso   1.000  Al
  Al3793   1.0000 0.47500  0.82500  0.77500  Biso   1.000  Al
  Al3794   1.0000 0.47500  0.87500  0.75000  Biso   1.000  Al
  Al3795   1.0000 0.42500  0.82500  0.80000  Biso   1.000  Al
  Al3796   1.0000 0.42500  0.87500  0.82500  Biso   1.000  Al
  Al3797   1.0000 0.47500  0.82500  0.82500  Biso   1.000  Al
  Al3798   1.0000 0.47500  0.87500  0.80000  Biso   1.000  Al
  Al3799   1.0000 0.42500  0.82500  0.85000  Biso   1.000  Al
  Al3800   1.0000 0.42500  0.87500  0.87500  Biso   1.000  Al
  Al3801   1.0000 0.47500  0.82500  0.87500  Biso   1.000  Al
  Al3802   1.0000 0.47500  0.87500  0.85000  Biso   1.000  Al
  Al3803   1.0000 0.42500  0.82500  0.90000  Biso   1.000  Al
  Al3804   1.0000 0.42500  0.87500  0.92500  Biso   1.000  Al
  Al3805   1.0000 0.47500  0.82500  0.92500  Biso   1.000  Al
  Al3806   1.0000 0.47500  0.87500  0.90000  Biso   1.000  Al
  Al3807   1.0000 0.42500  0.82500  0.95000  Biso   1.000  Al
  Al3808   1.0000 0.42500  0.87500  0.97500  Biso   1.000  Al
  Al3809   1.0000 0.47500  0.82500  0.97500  Biso   1.000  Al
  Al3810   1.0000 0.47500  0.87500  0.95000  Biso   1.000  Al
  Al3811   1.0000 0.42500  0.92500  0.00000  Biso   1.000  Al
  Al3812   1.0000 0.42500  0.97500  0.02500  Biso   1.000  Al
  Al3813   1.0000 0.47500  0.92500  0.02500  Biso   1.000  Al
  Al3814   1.0000 0.47500  0.97500  0.00000  Biso   1.000  Al
  Al3815   1.0000 0.42500  0.92500  0.05000  Biso   1.000  Al
  Al3816   1.0000 0.42500  0.97500  0.07500  Biso   1.000  Al
  Al3817   1.0000 0.47500  0.92500  0.07500  Biso   1.000  Al
  Al3818   1.0000 0.47500  0.97500  0.05000  Biso   1.000  Al
  Al3819   1.0000 0.42500  0.92500  0.10000  Biso   1.000  Al
  Al3820   1.0000 0.42500  0.97500  0.12500  Biso   1.000  Al
  Al3821   1.0000 0.47500  0.92500  0.12500  Biso   1.000  Al
  Al3822   1.0000 0.47500  0.97500  0.10000  Biso   1.000  Al
  Al3823   1.0000 0.42500  0.92500  0.15000  Biso   1.000  Al
  Al3824   1.0000 0.42500  0.97500  0.17500  Biso   1.000  Al
  Al3825   1.0000 0.47500  0.92500  0.17500  Biso   1.000  Al
  Al3826   1.0000 0.47500  0.97500  0.15000  Biso   1.000  Al
  Al3827   1.0000 0.42500  0.92500  0.20000  Biso   1.000  Al
  Al3828   1.0000 0.42500  0.97500  0.22500  Biso   1.000  Al
  Al3829   1.0000 0.47500  0.92500  0.22500  Biso   1.000  Al
  Al3830   1.0000 0.47500  0.97500  0.20000  Biso   1.000  Al
  Al3831   1.0000 0.42500  0.92500  0.25000  Biso   1.000  Al
  Al3832   1.0000 0.42500  0.97500  0.27500  Biso   1.000  Al
  Al3833   1.0000 0.47500  0.92500  0.27500  Biso   1.000  Al
  Al3834   1.0000 0.47500  0.97500  0.25000  Biso   1.000  Al
  Al3835   1.0000 0.42500  0.92500  0.30000  Biso   1.000  Al
  Al3836   1.0000 0.42500  0.97500  0.32500  Biso   1.000  Al
  Al3837   1.0000 0.47500  0.92500  0.32500  Biso   1.000  Al
  Al3838   1.0000 0.47500  0.97500  0.30000  Biso   1.000  Al
  Al3839   1.0000 0.42500  0.92500  0.35000  Biso   1.000  Al
  Al3840   1.0000 0.42500  0.97500  0.37500  Biso   1.000  Al
  Al3841   1.0000 0.47500  0.92500  0.37500  Biso   1.000  Al
  Al3842   1.0000 0.47500  0.97500  0.35000  Biso   1.000  Al
  Al3843   1.0000 0.42500  0.92500  0.40000  Biso   1.000  Al
  Al3844   1.0000 0.42500  0.97500  0.42500  Biso   1.000  Al
  Al3845   1.0000 0.47500  0.92500  0.42500  Biso   1.000  Al
  Al3846   1.0000 0.47500  0.97500  0.40000  Biso   1.000  Al
  Al3847   1.0000 0.42500  0.92500  0.45000  Biso   1.000  Al
  Al3848   1.0000 0.42500  0.97500  0.47500  Biso   1.000  Al
  Al3849   1.0000 0.47500  0.92500  0.47500  Biso   1.000  Al
  Al3850   1.0000 0.47500  0.97500  0.45000  Biso   1.000  Al
  Al3851   1.0000 0.42500  0.92500  0.50000  Biso   1.000  Al
  Al3852   1.0000 0.42500  0.97500  0.52500  Biso   1.000  Al
  Al3853   1.0000 0.47500  0.92500  0.52500  Biso   1.000  Al
  Al3854   1.0000 0.47500  0.97500  0.50000  Biso   1.000  Al
  Al3855   1.0000 0.42500  0.92500  0.55000  Biso   1.000  Al
  Al3856   1.0000 0.42500  0.97500  0.57500  Biso   1.000  Al
  Al3857   1.0000 0.47500  0.92500  0.57500  Biso   1.000  Al
  Al3858   1.0000 0.47500  0.97500  0.55000  Biso   1.000  Al
  Al3859   1.0000 0.42500  0.92500  0.60000  Biso   1.000  Al
  Al3860   1.0000 0.42500  0.97500  0.62500  Biso   1.000  Al
  Al3861   1.0000 0.47500  0.92500  0.62500  Biso   1.000  Al
  Al3862   1.0000 0.47500  0.97500  0.60000  Biso   1.000  Al
  Al3863   1.0000 0.42500  0.92500  0.65000  Biso   1.000  Al
  Al3864   1.0000 0.42500  0.97500  0.67500  Biso   1.000  Al
  Al3865   1.0000 0.47500  0.92500  0.67500  Biso   1.000  Al
  Al3866   1.0000 0.47500  0.97500  0.65000  Biso   1.000  Al
  Al3867   1.0000 0.42500  0.92500  0.70000  Biso   1.000  Al
  Al3868   1.0000 0.42500  0.97500  0.72500  Biso   1.000  Al
  Al3869   1.0000 0.47500  0.92500  0.72500  Biso   1.000  Al
  Al3870   1.0000 0.47500  0.97500  0.70000  Biso   1.000  Al
  Al3871   1.0000 0.42500  0.92500  0.75000  Biso   1.000  Al
  Al3872   1.0000 0.42500  0.97500  0.77500  Biso   1.000  Al
  Al3873   1.0000 0.47500  0.92500  0.77500  Biso   1.000  Al
  Al3874   1.0000 0.47500  0.97500  0.75000  Biso   1.000  Al
  Al3875   1.0000 0.42500  0.92500  0.80000  Biso   1.000  Al
  Al3876   1.0000 0.42500  0.97500  0.82500  Biso   1.000  Al
  Al3877   1.0000 0.47500  0.92500  0.82500  Biso   1.000  Al
  Al3878   1.0000 0.47500  0.97500  0.80000  Biso   1.000  Al
  Al3879   1.0000 0.42500  0.92500  0.85000  Biso   1.000  Al
  Al3880   1.0000 0.42500  0.97500  0.87500  Biso   1.000  Al
  Al3881   1.0000 0.47500  0.92500  0.87500  Biso   1.000  Al
  Al3882   1.0000 0.47500  0.97500  0.85000  Biso   1.000  Al
  Al3883   1.0000 0.42500  0.92500  0.90000  Biso   1.000  Al
  Al3884   1.0000 0.42500  0.97500  0.92500  Biso   1.000  Al
  Al3885   1.0000 0.47500  0.92500  0.92500  Biso   1.000  Al
  Al3886   1.0000 0.47500  0.97500  0.90000  Biso   1.000  Al
  Al3887   1.0000 0.42500  0.92500  0.95000  Biso   1.000  Al
  Al3888   1.0000 0.42500  0.97500  0.97500  Biso   1.000  Al
  Al3889   1.0000 0.47500  0.92500  0.97500  Biso   1.000  Al
  Al3890   1.0000 0.47500  0.97500  0.95000  Biso   1.000  Al
  Al3891   1.0000 0.52500  0.02500  0.00000  Biso   1.000  Al
  Al3892   1.0000 0.52500  0.07500  0.02500  Biso   1.000  Al
  Al3893   1.0000 0.57500  0.02500  0.02500  Biso   1.000  Al
  Al3894   1.0000 0.57500  0.07500  0.00000  Biso   1.000  Al
  Al3895   1.0000 0.52500  0.02500  0.05000  Biso   1.000  Al
  Al3896   1.0000 0.52500  0.07500  0.07500  Biso   1.000  Al
  Al3897   1.0000 0.57500  0.02500  0.07500  Biso   1.000  Al
  Al3898   1.0000 0.57500  0.07500  0.05000  Biso   1.000  Al
  Al3899   1.0000 0.52500  0.02500  0.10000  Biso   1.000  Al
  Al3900   1.0000 0.52500  0.07500  0.12500  Biso   1.000  Al
  Al3901   1.0000 0.57500  0.02500  0.12500  Biso   1.000  Al
  Al3902   1.0000 0.57500  0.07500  0.10000  Biso   1.000  Al
  Al3903   1.0000 0.52500  0.02500  0.15000  Biso   1.000  Al
  Al3904   1.0000 0.52500  0.07500  0.17500  Biso   1.000  Al
  Al3905   1.0000 0.57500  0.02500  0.17500  Biso   1.000  Al
  Al3906   1.0000 0.57500  0.07500  0.15000  Biso   1.000  Al
  Al3907   1.0000 0.52500  0.02500  0.20000  Biso   1.000  Al
  Al3908   1.0000 0.52500  0.07500  0.22500  Biso   1.000  Al
  Al3909   1.0000 0.57500  0.02500  0.22500  Biso   1.000  Al
  Al3910   1.0000 0.57500  0.07500  0.20000  Biso   1.000  Al
  Al3911   1.0000 0.52500  0.02500  0.25000  Biso   1.000  Al
  Al3912   1.0000 0.52500  0.07500  0.27500  Biso   1.000  Al
  Al3913   1.0000 0.57500  0.02500  0.27500  Biso   1.000  Al
  Al3914   1.0000 0.57500  0.07500  0.25000  Biso   1.000  Al
  Al3915   1.0000 0.52500  0.02500  0.30000  Biso   1.000  Al
  Al3916   1.0000 0.52500  0.07500  0.32500  Biso   1.000  Al
  Al3917   1.0000 0.57500  0.02500  0.32500  Biso   1.000  Al
  Al3918   1.0000 0.57500  0.07500  0.30000  Biso   1.000  Al
  Al3919   1.0000 0.52500  0.02500  0.35000  Biso   1.000  Al
  Al3920   1.0000 0.52500  0.07500  0.37500  Biso   1.000  Al
  Al3921   1.0000 0.57500  0.02500  0.37500  Biso   1.000  Al
  Al3922   1.0000 0.57500  0.07500  0.35000  Biso   1.000  Al
  Al3923   1.0000 0.52500  0.02500  0.40000  Biso   1.000  Al
  Al3924   1.0000 0.52500  0.07500  0.42500  Biso   1.000  Al
  Al3925   1.0000 0.57500  0.02500  0.42500  Biso   1.000  Al
  Al3926   1.0000 0.57500  0.07500  0.40000  Biso   1.000  Al
  Al3927   1.0000 0.52500  0.02500  0.45000  Biso   1.000  Al
  Al3928   1.0000 0.52500  0.07500  0.47500  Biso   1.000  Al
  Al3929   1.0000 0.57500  0.02500  0.47500  Biso   1.000  Al
  Al3930   1.0000 0.57500  0.07500  0.45000  Biso   1.000  Al
  Al3931   1.0000 0.52500  0.02500  0.50000  Biso   1.000  Al
  Al3932   1.0000 0.52500  0.07500  0.52500  Biso   1.000  Al
  Al3933   1.0000 0.57500  0.02500  0.52500  Biso   1.000  Al
  Al3934   1.0000 0.57500  0.07500  0.50000  Biso   1.000  Al
  Al3935   1.0000 0.52500  0.02500  0.55000  Biso   1.000  Al
  Al3936   1.0000 0.52500  0.07500  0.57500  Biso   1.000  Al
  Al3937   1.0000 0.57500  0.02500  0.57500  Biso   1.000  Al
  Al3938   1.0000 0.57500  0.07500  0.55000  Biso   1.000  Al
  Al3939   1.0000 0.52500  0.02500  0.60000  Biso   1.000  Al
  Al3940   1.0000 0.52500  0.07500  0.62500  Biso   1.000  Al
  Al3941   1.0000 0.57500  0.02500  0.62500  Biso   1.000  Al
  Al3942   1.0000 0.57500  0.07500  0.60000  Biso   1.000  Al
  Al3943   1.0000 0.52500  0.02500  0.65000  Biso   1.000  Al
  Al3944   1.0000 0.52500  0.07500  0.67500  Biso   1.000  Al
  Al3945   1.0000 0.57500  0.02500  0.67500  Biso   1.000  Al
  Al3946   1.0000 0.57500  0.07500  0.65000  Biso   1.000  Al
  Al3947   1.0000 0.52500  0.02500  0.70000  Biso   1.000  Al
  Al3948   1.0000 0.52500  0.07500  0.72500  Biso   1.000  Al
  Al3949   1.0000 0.57500  0.02500  0.72500  Biso   1.000  Al
  Al3950   1.0000 0.57500  0.07500  0.70000  Biso   1.000  Al
  Al3951   1.0000 0.52500  0.02500  0.75000  Biso   1.000  Al
  Al3952   1.0000 0.52500  0.07500  0.77500  Biso   1.000  Al
  Al3953   1.0000 0.57500  0.02500  0.77500  Biso   1.000  Al
  Al3954   1.0000 0.57500  0.07500  0.75000  Biso   1.000  Al
  Al3955   1.0000 0.52500  0.02500  0.80000  Biso   1.000  Al
  Al3956   1.0000 0.52500  0.07500  0.82500  Biso   1.000  Al
  Al3957   1.0000 0.57500  0.02500  0.82500  Biso   1.000  Al
  Al3958   1.0000 0.57500  0.07500  0.80000  Biso   1.000  Al
  Al3959   1.0000 0.52500  0.02500  0.85000  Biso   1.000  Al
  Al3960   1.0000 0.52500  0.07500  0.87500  Biso   1.000  Al
  Al3961   1.0000 0.57500  0.02500  0.87500  Biso   1.000  Al
  Al3962   1.0000 0.57500  0.07500  0.85000  Biso   1.000  Al
  Al3963   1.0000 0.52500  0.02500  0.90000  Biso   1.000  Al
  Al3964   1.0000 0.52500  0.07500  0.92500  Biso   1.000  Al
  Al3965   1.0000 0.57500  0.02500  0.92500  Biso   1.000  Al
  Al3966   1.0000 0.57500  0.07500  0.90000  Biso   1.000  Al
  Al3967   1.0000 0.52500  0.02500  0.95000  Biso   1.000  Al
  Al3968   1.0000 0.52500  0.07500  0.97500  Biso   1.000  Al
  Al3969   1.0000 0.57500  0.02500  0.97500  Biso   1.000  Al
  Al3970   1.0000 0.57500  0.07500  0.95000  Biso   1.000  Al
  Al3971   1.0000 0.52500  0.12500  0.00000  Biso   1.000  Al
  Al3972   1.0000 0.52500  0.17500  0.02500  Biso   1.000  Al
  Al3973   1.0000 0.57500  0.12500  0.02500  Biso   1.000  Al
  Al3974   1.0000 0.57500  0.17500  0.00000  Biso   1.000  Al
  Al3975   1.0000 0.52500  0.12500  0.05000  Biso   1.000  Al
  Al3976   1.0000 0.52500  0.17500  0.07500  Biso   1.000  Al
  Al3977   1.0000 0.57500  0.12500  0.07500  Biso   1.000  Al
  Al3978   1.0000 0.57500  0.17500  0.05000  Biso   1.000  Al
  Al3979   1.0000 0.52500  0.12500  0.10000  Biso   1.000  Al
  Al3980   1.0000 0.52500  0.17500  0.12500  Biso   1.000  Al
  Al3981   1.0000 0.57500  0.12500  0.12500  Biso   1.000  Al
  Al3982   1.0000 0.57500  0.17500  0.10000  Biso   1.000  Al
  Al3983   1.0000 0.52500  0.12500  0.15000  Biso   1.000  Al
  Al3984   1.0000 0.52500  0.17500  0.17500  Biso   1.000  Al
  Al3985   1.0000 0.57500  0.12500  0.17500  Biso   1.000  Al
  Al3986   1.0000 0.57500  0.17500  0.15000  Biso   1.000  Al
  Al3987   1.0000 0.52500  0.12500  0.20000  Biso   1.000  Al
  Al3988   1.0000 0.52500  0.17500  0.22500  Biso   1.000  Al
  Al3989   1.0000 0.57500  0.12500  0.22500  Biso   1.000  Al
  Al3990   1.0000 0.57500  0.17500  0.20000  Biso   1.000  Al
  Al3991   1.0000 0.52500  0.12500  0.25000  Biso   1.000  Al
  Al3992   1.0000 0.52500  0.17500  0.27500  Biso   1.000  Al
  Al3993   1.0000 0.57500  0.12500  0.27500  Biso   1.000  Al
  Al3994   1.0000 0.57500  0.17500  0.25000  Biso   1.000  Al
  Al3995   1.0000 0.52500  0.12500  0.30000  Biso   1.000  Al
  Al3996   1.0000 0.52500  0.17500  0.32500  Biso   1.000  Al
  Al3997   1.0000 0.57500  0.12500  0.32500  Biso   1.000  Al
  Al3998   1.0000 0.57500  0.17500  0.30000  Biso   1.000  Al
  Al3999   1.0000 0.52500  0.12500  0.35000  Biso   1.000  Al
  Al4000   1.0000 0.52500  0.17500  0.37500  Biso   1.000  Al
  Al4001   1.0000 0.57500  0.12500  0.37500  Biso   1.000  Al
  Al4002   1.0000 0.57500  0.17500  0.35000  Biso   1.000  Al
  Al4003   1.0000 0.52500  0.12500  0.40000  Biso   1.000  Al
  Al4004   1.0000 0.52500  0.17500  0.42500  Biso   1.000  Al
  Al4005   1.0000 0.57500  0.12500  0.42500  Biso   1.000  Al
  Al4006   1.0000 0.57500  0.17500  0.40000  Biso   1.000  Al
  Al4007   1.0000 0.52500  0.12500  0.45000  Biso   1.000  Al
  Al4008   1.0000 0.52500  0.17500  0.47500  Biso   1.000  Al
  Al4009   1.0000 0.57500  0.12500  0.47500  Biso   1.000  Al
  Al4010   1.0000 0.57500  0.17500  0.45000  Biso   1.000  Al
  Al4011   1.0000 0.52500  0.12500  0.50000  Biso   1.000  Al
  Al4012   1.0000 0.52500  0.17500  0.52500  Biso   1.000  Al
  Al4013   1.0000 0.57500  0.12500  0.52500  Biso   1.000  Al
  Al4014   1.0000 0.57500  0.17500  0.50000  Biso   1.000  Al
  Al4015   1.0000 0.52500  0.12500  0.55000  Biso   1.000  Al
  Al4016   1.0000 0.52500  0.17500  0.57500  Biso   1.000  Al
  Al4017   1.0000 0.57500  0.12500  0.57500  Biso   1.000  Al
  Al4018   1.0000 0.57500  0.17500  0.55000  Biso   1.000  Al
  Al4019   1.0000 0.52500  0.12500  0.60000  Biso   1.000  Al
  Al4020   1.0000 0.52500  0.17500  0.62500  Biso   1.000  Al
  Al4021   1.0000 0.57500  0.12500  0.62500  Biso   1.000  Al
  Al4022   1.0000 0.57500  0.17500  0.60000  Biso   1.000  Al
  Al4023   1.0000 0.52500  0.12500  0.65000  Biso   1.000  Al
  Al4024   1.0000 0.52500  0.17500  0.67500  Biso   1.000  Al
  Al4025   1.0000 0.57500  0.12500  0.67500  Biso   1.000  Al
  Al4026   1.0000 0.57500  0.17500  0.65000  Biso   1.000  Al
  Al4027   1.0000 0.52500  0.12500  0.70000  Biso   1.000  Al
  Al4028   1.0000 0.52500  0.17500  0.72500  Biso   1.000  Al
  Al4029   1.0000 0.57500  0.12500  0.72500  Biso   1.000  Al
  Al4030   1.0000 0.57500  0.17500  0.70000  Biso   1.000  Al
  Al4031   1.0000 0.52500  0.12500  0.75000  Biso   1.000  Al
  Al4032   1.0000 0.52500  0.17500  0.77500  Biso   1.000  Al
  Al4033   1.0000 0.57500  0.12500  0.77500  Biso   1.000  Al
  Al4034   1.0000 0.57500  0.17500  0.75000  Biso   1.000  Al
  Al4035   1.0000 0.52500  0.12500  0.80000  Biso   1.000  Al
  Al4036   1.0000 0.52500  0.17500  0.82500  Biso   1.000  Al
  Al4037   1.0000 0.57500  0.12500  0.82500  Biso   1.000  Al
  Al4038   1.0000 0.57500  0.17500  0.80000  Biso   1.000  Al
  Al4039   1.0000 0.52500  0.12500  0.85000  Biso   1.000  Al
  Al4040   1.0000 0.52500  0.17500  0.87500  Biso   1.000  Al
  Al4041   1.0000 0.57500  0.12500  0.87500  Biso   1.000  Al
  Al4042   1.0000 0.57500  0.17500  0.85000  Biso   1.000  Al
  Al4043   1.0000 0.52500  0.12500  0.90000  Biso   1.000  Al
  Al4044   1.0000 0.52500  0.17500  0.92500  Biso   1.000  Al
  Al4045   1.0000 0.57500  0.12500  0.92500  Biso   1.000  Al
  Al4046   1.0000 0.57500  0.17500  0.90000  Biso   1.000  Al
  Al4047   1.0000 0.52500  0.12500  0.95000  Biso   1.000  Al
  Al4048   1.0000 0.52500  0.17500  0.97500  Biso   1.000  Al
  Al4049   1.0000 0.57500  0.12500  0.97500  Biso   1.000  Al
  Al4050   1.0000 0.57500  0.17500  0.95000  Biso   1.000  Al
  Al4051   1.0000 0.52500  0.22500  0.00000  Biso   1.000  Al
  Al4052   1.0000 0.52500  0.27500  0.02500  Biso   1.000  Al
  Al4053   1.0000 0.57500  0.22500  0.02500  Biso   1.000  Al
  Al4054   1.0000 0.57500  0.27500  0.00000  Biso   1.000  Al
  Al4055   1.0000 0.52500  0.22500  0.05000  Biso   1.000  Al
  Al4056   1.0000 0.52500  0.27500  0.07500  Biso   1.000  Al
  Al4057   1.0000 0.57500  0.22500  0.07500  Biso   1.000  Al
  Al4058   1.0000 0.57500  0.27500  0.05000  Biso   1.000  Al
  Al4059   1.0000 0.52500  0.22500  0.10000  Biso   1.000  Al
  Al4060   1.0000 0.52500  0.27500  0.12500  Biso   1.000  Al
  Al4061   1.0000 0.57500  0.22500  0.12500  Biso   1.000  Al
  Al4062   1.0000 0.57500  0.27500  0.10000  Biso   1.000  Al
  Al4063   1.0000 0.52500  0.22500  0.15000  Biso   1.000  Al
  Al4064   1.0000 0.52500  0.27500  0.17500  Biso   1.000  Al
  Al4065   1.0000 0.57500  0.22500  0.17500  Biso   1.000  Al
  Al4066   1.0000 0.57500  0.27500  0.15000  Biso   1.000  Al
  Al4067   1.0000 0.52500  0.22500  0.20000  Biso   1.000  Al
  Al4068   1.0000 0.52500  0.27500  0.22500  Biso   1.000  Al
  Al4069   1.0000 0.57500  0.22500  0.22500  Biso   1.000  Al
  Al4070   1.0000 0.57500  0.27500  0.20000  Biso   1.000  Al
  Al4071   1.0000 0.52500  0.22500  0.25000  Biso   1.000  Al
  Al4072   1.0000 0.52500  0.27500  0.27500  Biso   1.000  Al
  Al4073   1.0000 0.57500  0.22500  0.27500  Biso   1.000  Al
  Al4074   1.0000 0.57500  0.27500  0.25000  Biso   1.000  Al
  Al4075   1.0000 0.52500  0.22500  0.30000  Biso   1.000  Al
  Al4076   1.0000 0.52500  0.27500  0.32500  Biso   1.000  Al
  Al4077   1.0000 0.57500  0.22500  0.32500  Biso   1.000  Al
  Al4078   1.0000 0.57500  0.27500  0.30000  Biso   1.000  Al
  Al4079   1.0000 0.52500  0.22500  0.35000  Biso   1.000  Al
  Al4080   1.0000 0.52500  0.27500  0.37500  Biso   1.000  Al
  Al4081   1.0000 0.57500  0.22500  0.37500  Biso   1.000  Al
  Al4082   1.0000 0.57500  0.27500  0.35000  Biso   1.000  Al
  Al4083   1.0000 0.52500  0.22500  0.40000  Biso   1.000  Al
  Al4084   1.0000 0.52500  0.27500  0.42500  Biso   1.000  Al
  Al4085   1.0000 0.57500  0.22500  0.42500  Biso   1.000  Al
  Al4086   1.0000 0.57500  0.27500  0.40000  Biso   1.000  Al
  Al4087   1.0000 0.52500  0.22500  0.45000  Biso   1.000  Al
  Al4088   1.0000 0.52500  0.27500  0.47500  Biso   1.000  Al
  Al4089   1.0000 0.57500  0.22500  0.47500  Biso   1.000  Al
  Al4090   1.0000 0.57500  0.27500  0.45000  Biso   1.000  Al
  Al4091   1.0000 0.52500  0.22500  0.50000  Biso   1.000  Al
  Al4092   1.0000 0.52500  0.27500  0.52500  Biso   1.000  Al
  Al4093   1.0000 0.57500  0.22500  0.52500  Biso   1.000  Al
  Al4094   1.0000 0.57500  0.27500  0.50000  Biso   1.000  Al
  Al4095   1.0000 0.52500  0.22500  0.55000  Biso   1.000  Al
  Al4096   1.0000 0.52500  0.27500  0.57500  Biso   1.000  Al
  Al4097   1.0000 0.57500  0.22500  0.57500  Biso   1.000  Al
  Al4098   1.0000 0.57500  0.27500  0.55000  Biso   1.000  Al
  Al4099   1.0000 0.52500  0.22500  0.60000  Biso   1.000  Al
  Al4100   1.0000 0.52500  0.27500  0.62500  Biso   1.000  Al
  Al4101   1.0000 0.57500  0.22500  0.62500  Biso   1.000  Al
  Al4102   1.0000 0.57500  0.27500  0.60000  Biso   1.000  Al
  Al4103   1.0000 0.52500  0.22500  0.65000  Biso   1.000  Al
  Al4104   1.0000 0.52500  0.27500  0.67500  Biso   1.000  Al
  Al4105   1.0000 0.57500  0.22500  0.67500  Biso   1.000  Al
  Al4106   1.0000 0.57500  0.27500  0.65000  Biso   1.000  Al
  Al4107   1.0000 0.52500  0.22500  0.70000  Biso   1.000  Al
  Al4108   1.0000 0.52500  0.27500  0.72500  Biso   1.000  Al
  Al4109   1.0000 0.57500  0.22500  0.72500  Biso   1.000  Al
  Al4110   1.0000 0.57500  0.27500  0.70000  Biso   1.000  Al
  Al4111   1.0000 0.52500  0.22500  0.75000  Biso   1.000  Al
  Al4112   1.0000 0.52500  0.27500  0.77500  Biso   1.000  Al
  Al4113   1.0000 0.57500  0.22500  0.77500  Biso   1.000  Al
  Al4114   1.0000 0.57500  0.27500  0.75000  Biso   1.000  Al
  Al4115   1.0000 0.52500  0.22500  0.80000  Biso   1.000  Al
  Al4116   1.0000 0.52500  0.27500  0.82500  Biso   1.000  Al
  Al4117   1.0000 0.57500  0.22500  0.82500  Biso   1.000  Al
  Al4118   1.0000 0.57500  0.27500  0.80000  Biso   1.000  Al
  Al4119   1.0000 0.52500  0.22500  0.85000  Biso   1.000  Al
  Al4120   1.0000 0.52500  0.27500  0.87500  Biso   1.000  Al
  Al4121   1.0000 0.57500  0.22500  0.87500  Biso   1.000  Al
  Al4122   1.0000 0.57500  0.27500  0.85000  Biso   1.000  Al
  Al4123   1.0000 0.52500  0.22500  0.90000  Biso   1.000  Al
  Al4124   1.0000 0.52500  0.27500  0.92500  Biso   1.000  Al
  Al4125   1.0000 0.57500  0.22500  0.92500  Biso   1.000  Al
  Al4126   1.0000 0.57500  0.27500  0.90000  Biso   1.000  Al
  Al4127   1.0000 0.52500  0.22500  0.95000  Biso   1.000  Al
  Al4128   1.0000 0.52500  0.27500  0.97500  Biso   1.000  Al
  Al4129   1.0000 0.57500  0.22500  0.97500  Biso   1.000  Al
  Al4130   1.0000 0.57500  0.27500  0.95000  Biso   1.000  Al
  Al4131   1.0000 0.52500  0.32500  0.00000  Biso   1.000  Al
  Al4132   1.0000 0.52500  0.37500  0.02500  Biso   1.000  Al
  Al4133   1.0000 0.57500  0.32500  0.02500  Biso   1.000  Al
  Al4134   1.0000 0.57500  0.37500  0.00000  Biso   1.000  Al
  Al4135   1.0000 0.52500  0.32500  0.05000  Biso   1.000  Al
  Al4136   1.0000 0.52500  0.37500  0.07500  Biso   1.000  Al
  Al4137   1.0000 0.57500  0.32500  0.07500  Biso   1.000  Al
  Al4138   1.0000 0.57500  0.37500  0.05000  Biso   1.000  Al
  Al4139   1.0000 0.52500  0.32500  0.10000  Biso   1.000  Al
  Al4140   1.0000 0.52500  0.37500  0.12500  Biso   1.000  Al
  Al4141   1.0000 0.57500  0.32500  0.12500  Biso   1.000  Al
  Al4142   1.0000 0.57500  0.37500  0.10000  Biso   1.000  Al
  Al4143   1.0000 0.52500  0.32500  0.15000  Biso   1.000  Al
  Al4144   1.0000 0.52500  0.37500  0.17500  Biso   1.000  Al
  Al4145   1.0000 0.57500  0.32500  0.17500  Biso   1.000  Al
  Al4146   1.0000 0.57500  0.37500  0.15000  Biso   1.000  Al
  Al4147   1.0000 0.52500  0.32500  0.20000  Biso   1.000  Al
  Al4148   1.0000 0.52500  0.37500  0.22500  Biso   1.000  Al
  Al4149   1.0000 0.57500  0.32500  0.22500  Biso   1.000  Al
  Al4150   1.0000 0.57500  0.37500  0.20000  Biso   1.000  Al
  Al4151   1.0000 0.52500  0.32500  0.25000  Biso   1.000  Al
  Al4152   1.0000 0.52500  0.37500  0.27500  Biso   1.000  Al
  Al4153   1.0000 0.57500  0.32500  0.27500  Biso   1.000  Al
  Al4154   1.0000 0.57500  0.37500  0.25000  Biso   1.000  Al
  Al4155   1.0000 0.52500  0.32500  0.30000  Biso   1.000  Al
  Al4156   1.0000 0.52500  0.37500  0.32500  Biso   1.000  Al
  Al4157   1.0000 0.57500  0.32500  0.32500  Biso   1.000  Al
  Al4158   1.0000 0.57500  0.37500  0.30000  Biso   1.000  Al
  Al4159   1.0000 0.52500  0.32500  0.35000  Biso   1.000  Al
  Al4160   1.0000 0.52500  0.37500  0.37500  Biso   1.000  Al
  Al4161   1.0000 0.57500  0.32500  0.37500  Biso   1.000  Al
  Al4162   1.0000 0.57500  0.37500  0.35000  Biso   1.000  Al
  Al4163   1.0000 0.52500  0.32500  0.40000  Biso   1.000  Al
  Al4164   1.0000 0.52500  0.37500  0.42500  Biso   1.000  Al
  Al4165   1.0000 0.57500  0.32500  0.42500  Biso   1.000  Al
  Al4166   1.0000 0.57500  0.37500  0.40000  Biso   1.000  Al
  Al4167   1.0000 0.52500  0.32500  0.45000  Biso   1.000  Al
  Al4168   1.0000 0.52500  0.37500  0.47500  Biso   1.000  Al
  Al4169   1.0000 0.57500  0.32500  0.47500  Biso   1.000  Al
  Al4170   1.0000 0.57500  0.37500  0.45000  Biso   1.000  Al
  Al4171   1.0000 0.52500  0.32500  0.50000  Biso   1.000  Al
  Al4172   1.0000 0.52500  0.37500  0.52500  Biso   1.000  Al
  Al4173   1.0000 0.57500  0.32500  0.52500  Biso   1.000  Al
  Al4174   1.0000 0.57500  0.37500  0.50000  Biso   1.000  Al
  Al4175   1.0000 0.52500  0.32500  0.55000  Biso   1.000  Al
  Al4176   1.0000 0.52500  0.37500  0.57500  Biso   1.000  Al
  Al4177   1.0000 0.57500  0.32500  0.57500  Biso   1.000  Al
  Al4178   1.0000 0.57500  0.37500  0.55000  Biso   1.000  Al
  Al4179   1.0000 0.52500  0.32500  0.60000  Biso   1.000  Al
  Al4180   1.0000 0.52500  0.37500  0.62500  Biso   1.000  Al
  Al4181   1.0000 0.57500  0.32500  0.62500  Biso   1.000  Al
  Al4182   1.0000 0.57500  0.37500  0.60000  Biso   1.000  Al
  Al4183   1.0000 0.52500  0.32500  0.65000  Biso   1.000  Al
  Al4184   1.0000 0.52500  0.37500  0.67500  Biso   1.000  Al
  Al4185   1.0000 0.57500  0.32500  0.67500  Biso   1.000  Al
  Al4186   1.0000 0.57500  0.37500  0.65000  Biso   1.000  Al
  Al4187   1.0000 0.52500  0.32500  0.70000  Biso   1.000  Al
  Al4188   1.0000 0.52500  0.37500  0.72500  Biso   1.000  Al
  Al4189   1.0000 0.57500  0.32500  0.72500  Biso   1.000  Al
  Al4190   1.0000 0.57500  0.37500  0.70000  Biso   1.000  Al
  Al4191   1.0000 0.52500  0.32500  0.75000  Biso   1.000  Al
  Al4192   1.0000 0.52500  0.37500  0.77500  Biso   1.000  Al
  Al4193   1.0000 0.57500  0.32500  0.77500  Biso   1.000  Al
  Al4194   1.0000 0.57500  0.37500  0.75000  Biso   1.000  Al
  Al4195   1.0000 0.52500  0.32500  0.80000  Biso   1.000  Al
  Al4196   1.0000 0.52500  0.37500  0.82500  Biso   1.000  Al
  Al4197   1.0000 0.57500  0.32500  0.82500  Biso   1.000  Al
  Al4198   1.0000 0.57500  0.37500  0.80000  Biso   1.000  Al
  Al4199   1.0000 0.52500  0.32500  0.85000  Biso   1.000  Al
  Al4200   1.0000 0.52500  0.37500  0.87500  Biso   1.000  Al
  Al4201   1.0000 0.57500  0.32500  0.87500  Biso   1.000  Al
  Al4202   1.0000 0.57500  0.37500  0.85000  Biso   1.000  Al
  Al4203   1.0000 0.52500  0.32500  0.90000  Biso   1.000  Al
  Al4204   1.0000 0.52500  0.37500  0.92500  Biso   1.000  Al
  Al4205   1.0000 0.57500  0.32500  0.92500  Biso   1.000  Al
  Al4206   1.0000 0.57500  0.37500  0.90000  Biso   1.000  Al
  Al4207   1.0000 0.52500  0.32500  0.95000  Biso   1.000  Al
  Al4208   1.0000 0.52500  0.37500  0.97500  Biso   1.000  Al
  Al4209   1.0000 0.57500  0.32500  0.97500  Biso   1.000  Al
  Al4210   1.0000 0.57500  0.37500  0.95000  Biso   1.000  Al
  Au111    1.0000 0.52500  0.42500  0.00000  Biso   1.000  Au
  Al4211   1.0000 0.52500  0.47500  0.02500  Biso   1.000  Al
  Au112    1.0000 0.57500  0.42500  0.02500  Biso   1.000  Au
  Al4212   1.0000 0.57500  0.47500  0.00000  Biso   1.000  Al
  Au113    1.0000 0.52500  0.42500  0.05000  Biso   1.000  Au
  Al4213   1.0000 0.52500  0.47500  0.07500  Biso   1.000  Al
  Au114    1.0000 0.57500  0.42500  0.07500  Biso   1.000  Au
  Al4214   1.0000 0.57500  0.47500  0.05000  Biso   1.000  Al
  Au115    1.0000 0.52500  0.42500  0.10000  Biso   1.000  Au
  Al4215   1.0000 0.52500  0.47500  0.12500  Biso   1.000  Al
  Au116    1.0000 0.57500  0.42500  0.12500  Biso   1.000  Au
  Al4216   1.0000 0.57500  0.47500  0.10000  Biso   1.000  Al
  Au117    1.0000 0.52500  0.42500  0.15000  Biso   1.000  Au
  Al4217   1.0000 0.52500  0.47500  0.17500  Biso   1.000  Al
  Au118    1.0000 0.57500  0.42500  0.17500  Biso   1.000  Au
  Al4218   1.0000 0.57500  0.47500  0.15000  Biso   1.000  Al
  Au119    1.0000 0.52500  0.42500  0.20000  Biso   1.000  Au
  Al4219   1.0000 0.52500  0.47500  0.22500  Biso   1.000  Al
  Au120    1.0000 0.57500  0.42500  0.22500  Biso   1.000  Au
  Al4220   1.0000 0.57500  0.47500  0.20000  Biso   1.000  Al
  Au121    1.0000 0.52500  0.42500  0.25000  Biso   1.000  Au
  Al4221   1.0000 0.52500  0.47500  0.27500  Biso   1.000  Al
  Au122    1.0000 0.57500  0.42500  0.27500  Biso   1.000  Au
  Al4222   1.0000 0.57500  0.47500  0.25000  Biso   1.000  Al
  Au123    1.0000 0.52500  0.42500  0.30000  Biso   1.000  Au
  Al4223   1.0000 0.52500  0.47500  0.32500  Biso   1.000  Al
  Au124    1.0000 0.57500  0.42500  0.32500  Biso   1.000  Au
  Al4224   1.0000 0.57500  0.47500  0.30000  Biso   1.000  Al
  Au125    1.0000 0.52500  0.42500  0.35000  Biso   1.000  Au
  Al4225   1.0000 0.52500  0.47500  0.37500  Biso   1.000  Al
  Au126    1.0000 0.57500  0.42500  0.37500  Biso   1.000  Au
  Al4226   1.0000 0.57500  0.47500  0.35000  Biso   1.000  Al
  Au127    1.0000 0.52500  0.42500  0.40000  Biso   1.000  Au
  Al4227   1.0000 0.52500  0.47500  0.42500  Biso   1.000  Al
  Au128    1.0000 0.57500  0.42500  0.42500  Biso   1.000  Au
  Al4228   1.0000 0.57500  0.47500  0.40000  Biso   1.000  Al
  Au129    1.0000 0.52500  0.42500  0.45000  Biso   1.000  Au
  Al4229   1.0000 0.52500  0.47500  0.47500  Biso   1.000  Al
  Au130    1.0000 0.57500  0.42500  0.47500  Biso   1.000  Au
  Al4230   1.0000 0.57500  0.47500  0.45000  Biso   1.000  Al
  Au131    1.0000 0.52500  0.42500  0.50000  Biso   1.000  Au
  Al4231   1.0000 0.52500  0.47500  0.52500  Biso   1.000  Al
  Au132    1.0000 0.57500  0.42500  0.52500  Biso   1.000  Au
  Al4232   1.0000 0.57500  0.47500  0.50000  Biso   1.000  Al
  Au133    1.0000 0.52500  0.42500  0.55000  Biso   1.000  Au
  Al4233   1.0000 0.52500  0.47500  0.57500  Biso   1.000  Al
  Au134    1.0000 0.57500  0.42500  0.57500  Biso   1.000  Au
  Al4234   1.0000 0.57500  0.47500  0.55000  Biso   1.000  Al
  Au135    1.0000 0.52500  0.42500  0.60000  Biso   1.000  Au
  Al4235   1.0000 0.52500  0.47500  0.62500  Biso   1.000  Al
  Au136    1.0000 0.57500  0.42500  0.62500  Biso   1.000  Au
  Al4236   1.0000 0.57500  0.47500  0.60000  Biso   1.000  Al
  Au137    1.0000 0.52500  0.42500  0.65000  Biso   1.000  Au
  Al4237   1.0000 0.52500  0.47500  0.67500  Biso   1.000  Al
  Au138    1.0000 0.57500  0.42500  0.67500  Biso   1.000  Au
  Al4238   1.0000 0.57500  0.47500  0.65000  Biso   1.000  Al
  Au139    1.0000 0.52500  0.42500  0.70000  Biso   1.000  Au
  Al4239   1.0000 0.52500  0.47500  0.72500  Biso   1.000  Al
  Au140    1.0000 0.57500  0.42500  0.72500  Biso   1.000  Au
  Al4240   1.0000 0.57500  0.47500  0.70000  Biso   1.000  Al
  Au141    1.0000 0.52500  0.42500  0.75000  Biso   1.000  Au
  Al4241   1.0000 0.52500  0.47500  0.77500  Biso   1.000  Al
  Au142    1.0000 0.57500  0.42500  0.77500  Biso   1.000  Au
  Al4242   1.0000 0.57500  0.47500  0.75000  Biso   1.000  Al
  Au143    1.0000 0.52500  0.42500  0.80000  Biso   1.000  Au
  Al4243   1.0000 0.52500  0.47500  0.82500  Biso   1.000  Al
  Au144    1.0000 0.57500  0.42500  0.82500  Biso   1.000  Au
  Al4244   1.0000 0.57500  0.47500  0.80000  Biso   1.000  Al
  Au145    1.0000 0.52500  0.42500  0.85000  Biso   1.000  Au
  Al4245   1.0000 0.52500  0.47500  0.87500  Biso   1.000  Al
  Au146    1.0000 0.57500  0.42500  0.87500  Biso   1.000  Au
  Al4246   1.0000 0.57500  0.47500  0.85000  Biso   1.000  Al
  Au147    1.0000 0.52500  0.42500  0.90000  Biso   1.000  Au
  Al4247   1.0000 0.52500  0.47500  0.92500  Biso   1.000  Al
  Au148    1.0000 0.57500  0.42500  0.92500  Biso   1.000  Au
  Al4248   1.0000 0.57500  0.47500  0.90000  Biso   1.000  Al
  Au149    1.0000 0.52500  0.42500  0.95000  Biso   1.000  Au
  Al4249   1.0000 0.52500  0.47500  0.97500  Biso   1.000  Al
  Au150    1.0000 0.57500  0.42500  0.97500  Biso   1.000  Au
  Al4250   1.0000 0.57500  0.47500  0.95000  Biso   1.000  Al
  Al4251   1.0000 0.52500  0.52500  0.00000  Biso   1.000  Al
  Al4252   1.0000 0.52500  0.57500  0.02500  Biso   1.000  Al
  Al4253   1.0000 0.57500  0.52500  0.02500  Biso   1.000  Al
  Al4254   1.0000 0.57500  0.57500  0.00000  Biso   1.000  Al
  Al4255   1.0000 0.52500  0.52500  0.05000  Biso   1.000  Al
  Al4256   1.0000 0.52500  0.57500  0.07500  Biso   1.000  Al
  Al4257   1.0000 0.57500  0.52500  0.07500  Biso   1.000  Al
  Al4258   1.0000 0.57500  0.57500  0.05000  Biso   1.000  Al
  Al4259   1.0000 0.52500  0.52500  0.10000  Biso   1.000  Al
  Al4260   1.0000 0.52500  0.57500  0.12500  Biso   1.000  Al
  Al4261   1.0000 0.57500  0.52500  0.12500  Biso   1.000  Al
  Al4262   1.0000 0.57500  0.57500  0.10000  Biso   1.000  Al
  Al4263   1.0000 0.52500  0.52500  0.15000  Biso   1.000  Al
  Al4264   1.0000 0.52500  0.57500  0.17500  Biso   1.000  Al
  Al4265   1.0000 0.57500  0.52500  0.17500  Biso   1.000  Al
  Al4266   1.0000 0.57500  0.57500  0.15000  Biso   1.000  Al
  Al4267   1.0000 0.52500  0.52500  0.20000  Biso   1.000  Al
  Al4268   1.0000 0.52500  0.57500  0.22500  Biso   1.000  Al
  Al4269   1.0000 0.57500  0.52500  0.22500  Biso   1.000  Al
  Al4270   1.0000 0.57500  0.57500  0.20000  Biso   1.000  Al
  Al4271   1.0000 0.52500  0.52500  0.25000  Biso   1.000  Al
  Al4272   1.0000 0.52500  0.57500  0.27500  Biso   1.000  Al
  Al4273   1.0000 0.57500  0.52500  0.27500  Biso   1.000  Al
  Al4274   1.0000 0.57500  0.57500  0.25000  Biso   1.000  Al
  Al4275   1.0000 0.52500  0.52500  0.30000  Biso   1.000  Al
  Al4276   1.0000 0.52500  0.57500  0.32500  Biso   1.000  Al
  Al4277   1.0000 0.57500  0.52500  0.32500  Biso   1.000  Al
  Al4278   1.0000 0.57500  0.57500  0.30000  Biso   1.000  Al
  Al4279   1.0000 0.52500  0.52500  0.35000  Biso   1.000  Al
  Al4280   1.0000 0.52500  0.57500  0.37500  Biso   1.000  Al
  Al4281   1.0000 0.57500  0.52500  0.37500  Biso   1.000  Al
  Al4282   1.0000 0.57500  0.57500  0.35000  Biso   1.000  Al
  Al4283   1.0000 0.52500  0.52500  0.40000  Biso   1.000  Al
  Al4284   1.0000 0.52500  0.57500  0.42500  Biso   1.000  Al
  Al4285   1.0000 0.57500  0.52500  0.42500  Biso   1.000  Al
  Al4286   1.0000 0.57500  0.57500  0.40000  Biso   1.000  Al
  Al4287   1.0000 0.52500  0.52500  0.45000  Biso   1.000  Al
  Al4288   1.0000 0.52500  0.57500  0.47500  Biso   1.000  Al
  Al4289   1.0000 0.57500  0.52500  0.47500  Biso   1.000  Al
  Al4290   1.0000 0.57500  0.57500  0.45000  Biso   1.000  Al
  Al4291   1.0000 0.52500  0.52500  0.50000  Biso   1.000  Al
  Al4292   1.0000 0.52500  0.57500  0.52500  Biso   1.000  Al
  Al4293   1.0000 0.57500  0.52500  0.52500  Biso   1.000  Al
  Al4294   1.0000 0.57500  0.57500  0.50000  Biso   1.000  Al
  Al4295   1.0000 0.52500  0.52500  0.55000  Biso   1.000  Al
  Al4296   1.0000 0.52500  0.57500  0.57500  Biso   1.000  Al
  Al4297   1.0000 0.57500  0.52500  0.57500  Biso   1.000  Al
  Al4298   1.0000 0.57500  0.57500  0.55000  Biso   1.000  Al
  Al4299   1.0000 0.52500  0.52500  0.60000  Biso   1.000  Al
  Al4300   1.0000 0.52500  0.57500  0.62500  Biso   1.000  Al
  Al4301   1.0000 0.57500  0.52500  0.62500  Biso   1.000  Al
  Al4302   1.0000 0.57500  0.57500  0.60000  Biso   1.000  Al
  Al4303   1.0000 0.52500  0.52500  0.65000  Biso   1.000  Al
  Al4304   1.0000 0.52500  0.57500  0.67500  Biso   1.000  Al
  Al4305   1.0000 0.57500  0.52500  0.67500  Biso   1.000  Al
  Al4306   1.0000 0.57500  0.57500  0.65000  Biso   1.000  Al
  Al4307   1.0000 0.52500  0.52500  0.70000  Biso   1.000  Al
  Al4308   1.0000 0.52500  0.57500  0.72500  Biso   1.000  Al
  Al4309   1.0000 0.57500  0.52500  0.72500  Biso   1.000  Al
  Al4310   1.0000 0.57500  0.57500  0.70000  Biso   1.000  Al
  Al4311   1.0000 0.52500  0.52500  0.75000  Biso   1.000  Al
  Al4312   1.0000 0.52500  0.57500  0.77500  Biso   1.000  Al
  Al4313   1.0000 0.57500  0.52500  0.77500  Biso   1.000  Al
  Al4314   1.0000 0.57500  0.57500  0.75000  Biso   1.000  Al
  Al4315   1.0000 0.52500  0.52500  0.80000  Biso   1.000  Al
  Al4316   1.0000 0.52500  0.57500  0.82500  Biso   1.000  Al
  Al4317   1.0000 0.57500  0.52500  0.82500  Biso   1.000  Al
  Al4318   1.0000 0.57500  0.57500  0.80000  Biso   1.000  Al
  Al4319   1.0000 0.52500  0.52500  0.85000  Biso   1.000  Al
  Al4320   1.0000 0.52500  0.57500  0.87500  Biso   1.000  Al
  Al4321   1.0000 0.57500  0.52500  0.87500  Biso   1.000  Al
  Al4322   1.0000 0.57500  0.57500  0.85000  Biso   1.000  Al
  Al4323   1.0000 0.52500  0.52500  0.90000  Biso   1.000  Al
  Al4324   1.0000 0.52500  0.57500  0.92500  Biso   1.000  Al
  Al4325   1.0000 0.57500  0.52500  0.92500  Biso   1.000  Al
  Al4326   1.0000 0.57500  0.57500  0.90000  Biso   1.000  Al
  Al4327   1.0000 0.52500  0.52500  0.95000  Biso   1.000  Al
  Al4328   1.0000 0.52500  0.57500  0.97500  Biso   1.000  Al
  Al4329   1.0000 0.57500  0.52500  0.97500  Biso   1.000  Al
  Al4330   1.0000 0.57500  0.57500  0.95000  Biso   1.000  Al
  Al4331   1.0000 0.52500  0.62500  0.00000  Biso   1.000  Al
  Al4332   1.0000 0.52500  0.67500  0.02500  Biso   1.000  Al
  Al4333   1.0000 0.57500  0.62500  0.02500  Biso   1.000  Al
  Al4334   1.0000 0.57500  0.67500  0.00000  Biso   1.000  Al
  Al4335   1.0000 0.52500  0.62500  0.05000  Biso   1.000  Al
  Al4336   1.0000 0.52500  0.67500  0.07500  Biso   1.000  Al
  Al4337   1.0000 0.57500  0.62500  0.07500  Biso   1.000  Al
  Al4338   1.0000 0.57500  0.67500  0.05000  Biso   1.000  Al
  Al4339   1.0000 0.52500  0.62500  0.10000  Biso   1.000  Al
  Al4340   1.0000 0.52500  0.67500  0.12500  Biso   1.000  Al
  Al4341   1.0000 0.57500  0.62500  0.12500  Biso   1.000  Al
  Al4342   1.0000 0.57500  0.67500  0.10000  Biso   1.000  Al
  Al4343   1.0000 0.52500  0.62500  0.15000  Biso   1.000  Al
  Al4344   1.0000 0.52500  0.67500  0.17500  Biso   1.000  Al
  Al4345   1.0000 0.57500  0.62500  0.17500  Biso   1.000  Al
  Al4346   1.0000 0.57500  0.67500  0.15000  Biso   1.000  Al
  Al4347   1.0000 0.52500  0.62500  0.20000  Biso   1.000  Al
  Al4348   1.0000 0.52500  0.67500  0.22500  Biso   1.000  Al
  Al4349   1.0000 0.57500  0.62500  0.22500  Biso   1.000  Al
  Al4350   1.0000 0.57500  0.67500  0.20000  Biso   1.000  Al
  Al4351   1.0000 0.52500  0.62500  0.25000  Biso   1.000  Al
  Al4352   1.0000 0.52500  0.67500  0.27500  Biso   1.000  Al
  Al4353   1.0000 0.57500  0.62500  0.27500  Biso   1.000  Al
  Al4354   1.0000 0.57500  0.67500  0.25000  Biso   1.000  Al
  Al4355   1.0000 0.52500  0.62500  0.30000  Biso   1.000  Al
  Al4356   1.0000 0.52500  0.67500  0.32500  Biso   1.000  Al
  Al4357   1.0000 0.57500  0.62500  0.32500  Biso   1.000  Al
  Al4358   1.0000 0.57500  0.67500  0.30000  Biso   1.000  Al
  Al4359   1.0000 0.52500  0.62500  0.35000  Biso   1.000  Al
  Al4360   1.0000 0.52500  0.67500  0.37500  Biso   1.000  Al
  Al4361   1.0000 0.57500  0.62500  0.37500  Biso   1.000  Al
  Al4362   1.0000 0.57500  0.67500  0.35000  Biso   1.000  Al
  Al4363   1.0000 0.52500  0.62500  0.40000  Biso   1.000  Al
  Al4364   1.0000 0.52500  0.67500  0.42500  Biso   1.000  Al
  Al4365   1.0000 0.57500  0.62500  0.42500  Biso   1.000  Al
  Al4366   1.0000 0.57500  0.67500  0.40000  Biso   1.000  Al
  Al4367   1.0000 0.52500  0.62500  0.45000  Biso   1.000  Al
  Al4368   1.0000 0.52500  0.67500  0.47500  Biso   1.000  Al
  Al4369   1.0000 0.57500  0.62500  0.47500  Biso   1.000  Al
  Al4370   1.0000 0.57500  0.67500  0.45000  Biso   1.000  Al
  Al4371   1.0000 0.52500  0.62500  0.50000  Biso   1.000  Al
  Al4372   1.0000 0.52500  0.67500  0.52500  Biso   1.000  Al
  Al4373   1.0000 0.57500  0.62500  0.52500  Biso   1.000  Al
  Al4374   1.0000 0.57500  0.67500  0.50000  Biso   1.000  Al
  Al4375   1.0000 0.52500  0.62500  0.55000  Biso   1.000  Al
  Al4376   1.0000 0.52500  0.67500  0.57500  Biso   1.000  Al
  Al4377   1.0000 0.57500  0.62500  0.57500  Biso   1.000  Al
  Al4378   1.0000 0.57500  0.67500  0.55000  Biso   1.000  Al
  Al4379   1.0000 0.52500  0.62500  0.60000  Biso   1.000  Al
  Al4380   1.0000 0.52500  0.67500  0.62500  Biso   1.000  Al
  Al4381   1.0000 0.57500  0.62500  0.62500  Biso   1.000  Al
  Al4382   1.0000 0.57500  0.67500  0.60000  Biso   1.000  Al
  Al4383   1.0000 0.52500  0.62500  0.65000  Biso   1.000  Al
  Al4384   1.0000 0.52500  0.67500  0.67500  Biso   1.000  Al
  Al4385   1.0000 0.57500  0.62500  0.67500  Biso   1.000  Al
  Al4386   1.0000 0.57500  0.67500  0.65000  Biso   1.000  Al
  Al4387   1.0000 0.52500  0.62500  0.70000  Biso   1.000  Al
  Al4388   1.0000 0.52500  0.67500  0.72500  Biso   1.000  Al
  Al4389   1.0000 0.57500  0.62500  0.72500  Biso   1.000  Al
  Al4390   1.0000 0.57500  0.67500  0.70000  Biso   1.000  Al
  Al4391   1.0000 0.52500  0.62500  0.75000  Biso   1.000  Al
  Al4392   1.0000 0.52500  0.67500  0.77500  Biso   1.000  Al
  Al4393   1.0000 0.57500  0.62500  0.77500  Biso   1.000  Al
  Al4394   1.0000 0.57500  0.67500  0.75000  Biso   1.000  Al
  Al4395   1.0000 0.52500  0.62500  0.80000  Biso   1.000  Al
  Al4396   1.0000 0.52500  0.67500  0.82500  Biso   1.000  Al
  Al4397   1.0000 0.57500  0.62500  0.82500  Biso   1.000  Al
  Al4398   1.0000 0.57500  0.67500  0.80000  Biso   1.000  Al
  Al4399   1.0000 0.52500  0.62500  0.85000  Biso   1.000  Al
  Al4400   1.0000 0.52500  0.67500  0.87500  Biso   1.000  Al
  Al4401   1.0000 0.57500  0.62500  0.87500  Biso   1.000  Al
  Al4402   1.0000 0.57500  0.67500  0.85000  Biso   1.000  Al
  Al4403   1.0000 0.52500  0.62500  0.90000  Biso   1.000  Al
  Al4404   1.0000 0.52500  0.67500  0.92500  Biso   1.000  Al
  Al4405   1.0000 0.57500  0.62500  0.92500  Biso   1.000  Al
  Al4406   1.0000 0.57500  0.67500  0.90000  Biso   1.000  Al
  Al4407   1.0000 0.52500  0.62500  0.95000  Biso   1.000  Al
  Al4408   1.0000 0.52500  0.67500  0.97500  Biso   1.000  Al
  Al4409   1.0000 0.57500  0.62500  0.97500  Biso   1.000  Al
  Al4410   1.0000 0.57500  0.67500  0.95000  Biso   1.000  Al
  Al4411   1.0000 0.52500  0.72500  0.00000  Biso   1.000  Al
  Al4412   1.0000 0.52500  0.77500  0.02500  Biso   1.000  Al
  Al4413   1.0000 0.57500  0.72500  0.02500  Biso   1.000  Al
  Al4414   1.0000 0.57500  0.77500  0.00000  Biso   1.000  Al
  Al4415   1.0000 0.52500  0.72500  0.05000  Biso   1.000  Al
  Al4416   1.0000 0.52500  0.77500  0.07500  Biso   1.000  Al
  Al4417   1.0000 0.57500  0.72500  0.07500  Biso   1.000  Al
  Al4418   1.0000 0.57500  0.77500  0.05000  Biso   1.000  Al
  Al4419   1.0000 0.52500  0.72500  0.10000  Biso   1.000  Al
  Al4420   1.0000 0.52500  0.77500  0.12500  Biso   1.000  Al
  Al4421   1.0000 0.57500  0.72500  0.12500  Biso   1.000  Al
  Al4422   1.0000 0.57500  0.77500  0.10000  Biso   1.000  Al
  Al4423   1.0000 0.52500  0.72500  0.15000  Biso   1.000  Al
  Al4424   1.0000 0.52500  0.77500  0.17500  Biso   1.000  Al
  Al4425   1.0000 0.57500  0.72500  0.17500  Biso   1.000  Al
  Al4426   1.0000 0.57500  0.77500  0.15000  Biso   1.000  Al
  Al4427   1.0000 0.52500  0.72500  0.20000  Biso   1.000  Al
  Al4428   1.0000 0.52500  0.77500  0.22500  Biso   1.000  Al
  Al4429   1.0000 0.57500  0.72500  0.22500  Biso   1.000  Al
  Al4430   1.0000 0.57500  0.77500  0.20000  Biso   1.000  Al
  Al4431   1.0000 0.52500  0.72500  0.25000  Biso   1.000  Al
  Al4432   1.0000 0.52500  0.77500  0.27500  Biso   1.000  Al
  Al4433   1.0000 0.57500  0.72500  0.27500  Biso   1.000  Al
  Al4434   1.0000 0.57500  0.77500  0.25000  Biso   1.000  Al
  Al4435   1.0000 0.52500  0.72500  0.30000  Biso   1.000  Al
  Al4436   1.0000 0.52500  0.77500  0.32500  Biso   1.000  Al
  Al4437   1.0000 0.57500  0.72500  0.32500  Biso   1.000  Al
  Al4438   1.0000 0.57500  0.77500  0.30000  Biso   1.000  Al
  Al4439   1.0000 0.52500  0.72500  0.35000  Biso   1.000  Al
  Al4440   1.0000 0.52500  0.77500  0.37500  Biso   1.000  Al
  Al4441   1.0000 0.57500  0.72500  0.37500  Biso   1.000  Al
  Al4442   1.0000 0.57500  0.77500  0.35000  Biso   1.000  Al
  Al4443   1.0000 0.52500  0.72500  0.40000  Biso   1.000  Al
  Al4444   1.0000 0.52500  0.77500  0.42500  Biso   1.000  Al
  Al4445   1.0000 0.57500  0.72500  0.42500  Biso   1.000  Al
  Al4446   1.0000 0.57500  0.77500  0.40000  Biso   1.000  Al
  Al4447   1.0000 0.52500  0.72500  0.45000  Biso   1.000  Al
  Al4448   1.0000 0.52500  0.77500  0.47500  Biso   1.000  Al
  Al4449   1.0000 0.57500  0.72500  0.47500  Biso   1.000  Al
  Al4450   1.0000 0.57500  0.77500  0.45000  Biso   1.000  Al
  Al4451   1.0000 0.52500  0.72500  0.50000  Biso   1.000  Al
  Al4452   1.0000 0.52500  0.77500  0.52500  Biso   1.000  Al
  Al4453   1.0000 0.57500  0.72500  0.52500  Biso   1.000  Al
  Al4454   1.0000 0.57500  0.77500  0.50000  Biso   1.000  Al
  Al4455   1.0000 0.52500  0.72500  0.55000  Biso   1.000  Al
  Al4456   1.0000 0.52500  0.77500  0.57500  Biso   1.000  Al
  Al4457   1.0000 0.57500  0.72500  0.57500  Biso   1.000  Al
  Al4458   1.0000 0.57500  0.77500  0.55000  Biso   1.000  Al
  Al4459   1.0000 0.52500  0.72500  0.60000  Biso   1.000  Al
  Al4460   1.0000 0.52500  0.77500  0.62500  Biso   1.000  Al
  Al4461   1.0000 0.57500  0.72500  0.62500  Biso   1.000  Al
  Al4462   1.0000 0.57500  0.77500  0.60000  Biso   1.000  Al
  Al4463   1.0000 0.52500  0.72500  0.65000  Biso   1.000  Al
  Al4464   1.0000 0.52500  0.77500  0.67500  Biso   1.000  Al
  Al4465   1.0000 0.57500  0.72500  0.67500  Biso   1.000  Al
  Al4466   1.0000 0.57500  0.77500  0.65000  Biso   1.000  Al
  Al4467   1.0000 0.52500  0.72500  0.70000  Biso   1.000  Al
  Al4468   1.0000 0.52500  0.77500  0.72500  Biso   1.000  Al
  Al4469   1.0000 0.57500  0.72500  0.72500  Biso   1.000  Al
  Al4470   1.0000 0.57500  0.77500  0.70000  Biso   1.000  Al
  Al4471   1.0000 0.52500  0.72500  0.75000  Biso   1.000  Al
  Al4472   1.0000 0.52500  0.77500  0.77500  Biso   1.000  Al
  Al4473   1.0000 0.57500  0.72500  0.77500  Biso   1.000  Al
  Al4474   1.0000 0.57500  0.77500  0.75000  Biso   1.000  Al
  Al4475   1.0000 0.52500  0.72500  0.80000  Biso   1.000  Al
  Al4476   1.0000 0.52500  0.77500  0.82500  Biso   1.000  Al
  Al4477   1.0000 0.57500  0.72500  0.82500  Biso   1.000  Al
  Al4478   1.0000 0.57500  0.77500  0.80000  Biso   1.000  Al
  Al4479   1.0000 0.52500  0.72500  0.85000  Biso   1.000  Al
  Al4480   1.0000 0.52500  0.77500  0.87500  Biso   1.000  Al
  Al4481   1.0000 0.57500  0.72500  0.87500  Biso   1.000  Al
  Al4482   1.0000 0.57500  0.77500  0.85000  Biso   1.000  Al
  Al4483   1.0000 0.52500  0.72500  0.90000  Biso   1.000  Al
  Al4484   1.0000 0.52500  0.77500  0.92500  Biso   1.000  Al
  Al4485   1.0000 0.57500  0.72500  0.92500  Biso   1.000  Al
  Al4486   1.0000 0.57500  0.77500  0.90000  Biso   1.000  Al
  Al4487   1.0000 0.52500  0.72500  0.95000  Biso   1.000  Al
  Al4488   1.0000 0.52500  0.77500  0.97500  Biso   1.000  Al
  Al4489   1.0000 0.57500  0.72500  0.97500  Biso   1.000  Al
  Al4490   1.0000 0.57500  0.77500  0.95000  Biso   1.000  Al
  Al4491   1.0000 0.52500  0.82500  0.00000  Biso   1.000  Al
  Al4492   1.0000 0.52500  0.87500  0.02500  Biso   1.000  Al
  Al4493   1.0000 0.57500  0.82500  0.02500  Biso   1.000  Al
  Al4494   1.0000 0.57500  0.87500  0.00000  Biso   1.000  Al
  Al4495   1.0000 0.52500  0.82500  0.05000  Biso   1.000  Al
  Al4496   1.0000 0.52500  0.87500  0.07500  Biso   1.000  Al
  Al4497   1.0000 0.57500  0.82500  0.07500  Biso   1.000  Al
  Al4498   1.0000 0.57500  0.87500  0.05000  Biso   1.000  Al
  Al4499   1.0000 0.52500  0.82500  0.10000  Biso   1.000  Al
  Al4500   1.0000 0.52500  0.87500  0.12500  Biso   1.000  Al
  Al4501   1.0000 0.57500  0.82500  0.12500  Biso   1.000  Al
  Al4502   1.0000 0.57500  0.87500  0.10000  Biso   1.000  Al
  Al4503   1.0000 0.52500  0.82500  0.15000  Biso   1.000  Al
  Al4504   1.0000 0.52500  0.87500  0.17500  Biso   1.000  Al
  Al4505   1.0000 0.57500  0.82500  0.17500  Biso   1.000  Al
  Al4506   1.0000 0.57500  0.87500  0.15000  Biso   1.000  Al
  Al4507   1.0000 0.52500  0.82500  0.20000  Biso   1.000  Al
  Al4508   1.0000 0.52500  0.87500  0.22500  Biso   1.000  Al
  Al4509   1.0000 0.57500  0.82500  0.22500  Biso   1.000  Al
  Al4510   1.0000 0.57500  0.87500  0.20000  Biso   1.000  Al
  Al4511   1.0000 0.52500  0.82500  0.25000  Biso   1.000  Al
  Al4512   1.0000 0.52500  0.87500  0.27500  Biso   1.000  Al
  Al4513   1.0000 0.57500  0.82500  0.27500  Biso   1.000  Al
  Al4514   1.0000 0.57500  0.87500  0.25000  Biso   1.000  Al
  Al4515   1.0000 0.52500  0.82500  0.30000  Biso   1.000  Al
  Al4516   1.0000 0.52500  0.87500  0.32500  Biso   1.000  Al
  Al4517   1.0000 0.57500  0.82500  0.32500  Biso   1.000  Al
  Al4518   1.0000 0.57500  0.87500  0.30000  Biso   1.000  Al
  Al4519   1.0000 0.52500  0.82500  0.35000  Biso   1.000  Al
  Al4520   1.0000 0.52500  0.87500  0.37500  Biso   1.000  Al
  Al4521   1.0000 0.57500  0.82500  0.37500  Biso   1.000  Al
  Al4522   1.0000 0.57500  0.87500  0.35000  Biso   1.000  Al
  Al4523   1.0000 0.52500  0.82500  0.40000  Biso   1.000  Al
  Al4524   1.0000 0.52500  0.87500  0.42500  Biso   1.000  Al
  Al4525   1.0000 0.57500  0.82500  0.42500  Biso   1.000  Al
  Al4526   1.0000 0.57500  0.87500  0.40000  Biso   1.000  Al
  Al4527   1.0000 0.52500  0.82500  0.45000  Biso   1.000  Al
  Al4528   1.0000 0.52500  0.87500  0.47500  Biso   1.000  Al
  Al4529   1.0000 0.57500  0.82500  0.47500  Biso   1.000  Al
  Al4530   1.0000 0.57500  0.87500  0.45000  Biso   1.000  Al
  Al4531   1.0000 0.52500  0.82500  0.50000  Biso   1.000  Al
  Al4532   1.0000 0.52500  0.87500  0.52500  Biso   1.000  Al
  Al4533   1.0000 0.57500  0.82500  0.52500  Biso   1.000  Al
  Al4534   1.0000 0.57500  0.87500  0.50000  Biso   1.000  Al
  Al4535   1.0000 0.52500  0.82500  0.55000  Biso   1.000  Al
  Al4536   1.0000 0.52500  0.87500  0.57500  Biso   1.000  Al
  Al4537   1.0000 0.57500  0.82500  0.57500  Biso   1.000  Al
  Al4538   1.0000 0.57500  0.87500  0.55000  Biso   1.000  Al
  Al4539   1.0000 0.52500  0.82500  0.60000  Biso   1.000  Al
  Al4540   1.0000 0.52500  0.87500  0.62500  Biso   1.000  Al
  Al4541   1.0000 0.57500  0.82500  0.62500  Biso   1.000  Al
  Al4542   1.0000 0.57500  0.87500  0.60000  Biso   1.000  Al
  Al4543   1.0000 0.52500  0.82500  0.65000  Biso   1.000  Al
  Al4544   1.0000 0.52500  0.87500  0.67500  Biso   1.000  Al
  Al4545   1.0000 0.57500  0.82500  0.67500  Biso   1.000  Al
  Al4546   1.0000 0.57500  0.87500  0.65000  Biso   1.000  Al
  Al4547   1.0000 0.52500  0.82500  0.70000  Biso   1.000  Al
  Al4548   1.0000 0.52500  0.87500  0.72500  Biso   1.000  Al
  Al4549   1.0000 0.57500  0.82500  0.72500  Biso   1.000  Al
  Al4550   1.0000 0.57500  0.87500  0.70000  Biso   1.000  Al
  Al4551   1.0000 0.52500  0.82500  0.75000  Biso   1.000  Al
  Al4552   1.0000 0.52500  0.87500  0.77500  Biso   1.000  Al
  Al4553   1.0000 0.57500  0.82500  0.77500  Biso   1.000  Al
  Al4554   1.0000 0.57500  0.87500  0.75000  Biso   1.000  Al
  Al4555   1.0000 0.52500  0.82500  0.80000  Biso   1.000  Al
  Al4556   1.0000 0.52500  0.87500  0.82500  Biso   1.000  Al
  Al4557   1.0000 0.57500  0.82500  0.82500  Biso   1.000  Al
  Al4558   1.0000 0.57500  0.87500  0.80000  Biso   1.000  Al
  Al4559   1.0000 0.52500  0.82500  0.85000  Biso   1.000  Al
  Al4560   1.0000 0.52500  0.87500  0.87500  Biso   1.000  Al
  Al4561   1.0000 0.57500  0.82500  0.87500  Biso   1.000  Al
  Al4562   1.0000 0.57500  0.87500  0.85000  Biso   1.000  Al
  Al4563   1.0000 0.52500  0.82500  0.90000  Biso   1.000  Al
  Al4564   1.0000 0.52500  0.87500  0.92500  Biso   1.000  Al
  Al4565   1.0000 0.57500  0.82500  0.92500  Biso   1.000  Al
  Al4566   1.0000 0.57500  0.87500  0.90000  Biso   1.000  Al
  Al4567   1.0000 0.52500  0.82500  0.95000  Biso   1.000  Al
  Al4568   1.0000 0.52500  0.87500  0.97500  Biso   1.000  Al
  Al4569   1.0000 0.57500  0.82500  0.97500  Biso   1.000  Al
  Al4570   1.0000 0.57500  0.87500  0.95000  Biso   1.000  Al
  Al4571   1.0000 0.52500  0.92500  0.00000  Biso   1.000  Al
  Al4572   1.0000 0.52500  0.97500  0.02500  Biso   1.000  Al
  Al4573   1.0000 0.57500  0.92500  0.02500  Biso   1.000  Al
  Al4574   1.0000 0.57500  0.97500  0.00000  Biso   1.000  Al
  Al4575   1.0000 0.52500  0.92500  0.05000  Biso   1.000  Al
  Al4576   1.0000 0.52500  0.97500  0.07500  Biso   1.000  Al
  Al4577   1.0000 0.57500  0.92500  0.07500  Biso   1.000  Al
  Al4578   1.0000 0.57500  0.97500  0.05000  Biso   1.000  Al
  Al4579   1.0000 0.52500  0.92500  0.10000  Biso   1.000  Al
  Al4580   1.0000 0.52500  0.97500  0.12500  Biso   1.000  Al
  Al4581   1.0000 0.57500  0.92500  0.12500  Biso   1.000  Al
  Al4582   1.0000 0.57500  0.97500  0.10000  Biso   1.000  Al
  Al4583   1.0000 0.52500  0.92500  0.15000  Biso   1.000  Al
  Al4584   1.0000 0.52500  0.97500  0.17500  Biso   1.000  Al
  Al4585   1.0000 0.57500  0.92500  0.17500  Biso   1.000  Al
  Al4586   1.0000 0.57500  0.97500  0.15000  Biso   1.000  Al
  Al4587   1.0000 0.52500  0.92500  0.20000  Biso   1.000  Al
  Al4588   1.0000 0.52500  0.97500  0.22500  Biso   1.000  Al
  Al4589   1.0000 0.57500  0.92500  0.22500  Biso   1.000  Al
  Al4590   1.0000 0.57500  0.97500  0.20000  Biso   1.000  Al
  Al4591   1.0000 0.52500  0.92500  0.25000  Biso   1.000  Al
  Al4592   1.0000 0.52500  0.97500  0.27500  Biso   1.000  Al
  Al4593   1.0000 0.57500  0.92500  0.27500  Biso   1.000  Al
  Al4594   1.0000 0.57500  0.97500  0.25000  Biso   1.000  Al
  Al4595   1.0000 0.52500  0.92500  0.30000  Biso   1.000  Al
  Al4596   1.0000 0.52500  0.97500  0.32500  Biso   1.000  Al
  Al4597   1.0000 0.57500  0.92500  0.32500  Biso   1.000  Al
  Al4598   1.0000 0.57500  0.97500  0.30000  Biso   1.000  Al
  Al4599   1.0000 0.52500  0.92500  0.35000  Biso   1.000  Al
  Al4600   1.0000 0.52500  0.97500  0.37500  Biso   1.000  Al
  Al4601   1.0000 0.57500  0.92500  0.37500  Biso   1.000  Al
  Al4602   1.0000 0.57500  0.97500  0.35000  Biso   1.000  Al
  Al4603   1.0000 0.52500  0.92500  0.40000  Biso   1.000  Al
  Al4604   1.0000 0.52500  0.97500  0.42500  Biso   1.000  Al
  Al4605   1.0000 0.57500  0.92500  0.42500  Biso   1.000  Al
  Al4606   1.0000 0.57500  0.97500  0.40000  Biso   1.000  Al
  Al4607   1.0000 0.52500  0.92500  0.45000  Biso   1.000  Al
  Al4608   1.0000 0.52500  0.97500  0.47500  Biso   1.000  Al
  Al4609   1.0000 0.57500  0.92500  0.47500  Biso   1.000  Al
  Al4610   1.0000 0.57500  0.97500  0.45000  Biso   1.000  Al
  Al4611   1.0000 0.52500  0.92500  0.50000  Biso   1.000  Al
  Al4612   1.0000 0.52500  0.97500  0.52500  Biso   1.000  Al
  Al4613   1.0000 0.57500  0.92500  0.52500  Biso   1.000  Al
  Al4614   1.0000 0.57500  0.97500  0.50000  Biso   1.000  Al
  Al4615   1.0000 0.52500  0.92500  0.55000  Biso   1.000  Al
  Al4616   1.0000 0.52500  0.97500  0.57500  Biso   1.000  Al
  Al4617   1.0000 0.57500  0.92500  0.57500  Biso   1.000  Al
  Al4618   1.0000 0.57500  0.97500  0.55000  Biso   1.000  Al
  Al4619   1.0000 0.52500  0.92500  0.60000  Biso   1.000  Al
  Al4620   1.0000 0.52500  0.97500  0.62500  Biso   1.000  Al
  Al4621   1.0000 0.57500  0.92500  0.62500  Biso   1.000  Al
  Al4622   1.0000 0.57500  0.97500  0.60000  Biso   1.000  Al
  Al4623   1.0000 0.52500  0.92500  0.65000  Biso   1.000  Al
  Al4624   1.0000 0.52500  0.97500  0.67500  Biso   1.000  Al
  Al4625   1.0000 0.57500  0.92500  0.67500  Biso   1.000  Al
  Al4626   1.0000 0.57500  0.97500  0.65000  Biso   1.000  Al
  Al4627   1.0000 0.52500  0.92500  0.70000  Biso   1.000  Al
  Al4628   1.0000 0.52500  0.97500  0.72500  Biso   1.000  Al
  Al4629   1.0000 0.57500  0.92500  0.72500  Biso   1.000  Al
  Al4630   1.0000 0.57500  0.97500  0.70000  Biso   1.000  Al
  Al4631   1.0000 0.52500  0.92500  0.75000  Biso   1.000  Al
  Al4632   1.0000 0.52500  0.97500  0.77500  Biso   1.000  Al
  Al4633   1.0000 0.57500  0.92500  0.77500  Biso   1.000  Al
  Al4634   1.0000 0.57500  0.97500  0.75000  Biso   1.000  Al
  Al4635   1.0000 0.52500  0.92500  0.80000  Biso   1.000  Al
  Al4636   1.0000 0.52500  0.97500  0.82500  Biso   1.000  Al
  Al4637   1.0000 0.57500  0.92500  0.82500  Biso   1.000  Al
  Al4638   1.0000 0.57500  0.97500  0.80000  Biso   1.000  Al
  Al4639   1.0000 0.52500  0.92500  0.85000  Biso   1.000  Al
  Al4640   1.0000 0.52500  0.97500  0.87500  Biso   1.000  Al
  Al4641   1.0000 0.57500  0.92500  0.87500  Biso   1.000  Al
  Al4642   1.0000 0.57500  0.97500  0.85000  Biso   1.000  Al
  Al4643   1.0000 0.52500  0.92500  0.90000  Biso   1.000  Al
  Al4644   1.0000 0.52500  0.97500  0.92500  Biso   1.000  Al
  Al4645   1.0000 0.57500  0.92500  0.92500  Biso   1.000  Al
  Al4646   1.0000 0.57500  0.97500  0.90000  Biso   1.000  Al
  Al4647   1.0000 0.52500  0.92500  0.95000  Biso   1.000  Al
  Al4648   1.0000 0.52500  0.97500  0.97500  Biso   1.000  Al
  Al4649   1.0000 0.57500  0.92500  0.97500  Biso   1.000  Al
  Al4650   1.0000 0.57500  0.97500  0.95000  Biso   1.000  Al
  Al4651   1.0000 0.62500  0.02500  0.00000  Biso   1.000  Al
  Al4652   1.0000 0.62500  0.07500  0.02500  Biso   1.000  Al
  Al4653   1.0000 0.67500  0.02500  0.02500  Biso   1.000  Al
  Al4654   1.0000 0.67500  0.07500  0.00000  Biso   1.000  Al
  Al4655   1.0000 0.62500  0.02500  0.05000  Biso   1.000  Al
  Al4656   1.0000 0.62500  0.07500  0.07500  Biso   1.000  Al
  Al4657   1.0000 0.67500  0.02500  0.07500  Biso   1.000  Al
  Al4658   1.0000 0.67500  0.07500  0.05000  Biso   1.000  Al
  Al4659   1.0000 0.62500  0.02500  0.10000  Biso   1.000  Al
  Al4660   1.0000 0.62500  0.07500  0.12500  Biso   1.000  Al
  Al4661   1.0000 0.67500  0.02500  0.12500  Biso   1.000  Al
  Al4662   1.0000 0.67500  0.07500  0.10000  Biso   1.000  Al
  Al4663   1.0000 0.62500  0.02500  0.15000  Biso   1.000  Al
  Al4664   1.0000 0.62500  0.07500  0.17500  Biso   1.000  Al
  Al4665   1.0000 0.67500  0.02500  0.17500  Biso   1.000  Al
  Al4666   1.0000 0.67500  0.07500  0.15000  Biso   1.000  Al
  Al4667   1.0000 0.62500  0.02500  0.20000  Biso   1.000  Al
  Al4668   1.0000 0.62500  0.07500  0.22500  Biso   1.000  Al
  Al4669   1.0000 0.67500  0.02500  0.22500  Biso   1.000  Al
  Al4670   1.0000 0.67500  0.07500  0.20000  Biso   1.000  Al
  Al4671   1.0000 0.62500  0.02500  0.25000  Biso   1.000  Al
  Al4672   1.0000 0.62500  0.07500  0.27500  Biso   1.000  Al
  Al4673   1.0000 0.67500  0.02500  0.27500  Biso   1.000  Al
  Al4674   1.0000 0.67500  0.07500  0.25000  Biso   1.000  Al
  Al4675   1.0000 0.62500  0.02500  0.30000  Biso   1.000  Al
  Al4676   1.0000 0.62500  0.07500  0.32500  Biso   1.000  Al
  Al4677   1.0000 0.67500  0.02500  0.32500  Biso   1.000  Al
  Al4678   1.0000 0.67500  0.07500  0.30000  Biso   1.000  Al
  Al4679   1.0000 0.62500  0.02500  0.35000  Biso   1.000  Al
  Al4680   1.0000 0.62500  0.07500  0.37500  Biso   1.000  Al
  Al4681   1.0000 0.67500  0.02500  0.37500  Biso   1.000  Al
  Al4682   1.0000 0.67500  0.07500  0.35000  Biso   1.000  Al
  Al4683   1.0000 0.62500  0.02500  0.40000  Biso   1.000  Al
  Al4684   1.0000 0.62500  0.07500  0.42500  Biso   1.000  Al
  Al4685   1.0000 0.67500  0.02500  0.42500  Biso   1.000  Al
  Al4686   1.0000 0.67500  0.07500  0.40000  Biso   1.000  Al
  Al4687   1.0000 0.62500  0.02500  0.45000  Biso   1.000  Al
  Al4688   1.0000 0.62500  0.07500  0.47500  Biso   1.000  Al
  Al4689   1.0000 0.67500  0.02500  0.47500  Biso   1.000  Al
  Al4690   1.0000 0.67500  0.07500  0.45000  Biso   1.000  Al
  Al4691   1.0000 0.62500  0.02500  0.50000  Biso   1.000  Al
  Al4692   1.0000 0.62500  0.07500  0.52500  Biso   1.000  Al
  Al4693   1.0000 0.67500  0.02500  0.52500  Biso   1.000  Al
  Al4694   1.0000 0.67500  0.07500  0.50000  Biso   1.000  Al
  Al4695   1.0000 0.62500  0.02500  0.55000  Biso   1.000  Al
  Al4696   1.0000 0.62500  0.07500  0.57500  Biso   1.000  Al
  Al4697   1.0000 0.67500  0.02500  0.57500  Biso   1.000  Al
  Al4698   1.0000 0.67500  0.07500  0.55000  Biso   1.000  Al
  Al4699   1.0000 0.62500  0.02500  0.60000  Biso   1.000  Al
  Al4700   1.0000 0.62500  0.07500  0.62500  Biso   1.000  Al
  Al4701   1.0000 0.67500  0.02500  0.62500  Biso   1.000  Al
  Al4702   1.0000 0.67500  0.07500  0.60000  Biso   1.000  Al
  Al4703   1.0000 0.62500  0.02500  0.65000  Biso   1.000  Al
  Al4704   1.0000 0.62500  0.07500  0.67500  Biso   1.000  Al
  Al4705   1.0000 0.67500  0.02500  0.67500  Biso   1.000  Al
  Al4706   1.0000 0.67500  0.07500  0.65000  Biso   1.000  Al
  Al4707   1.0000 0.62500  0.02500  0.70000  Biso   1.000  Al
  Al4708   1.0000 0.62500  0.07500  0.72500  Biso   1.000  Al
  Al4709   1.0000 0.67500  0.02500  0.72500  Biso   1.000  Al
  Al4710   1.0000 0.67500  0.07500  0.70000  Biso   1.000  Al
  Al4711   1.0000 0.62500  0.02500  0.75000  Biso   1.000  Al
  Al4712   1.0000 0.62500  0.07500  0.77500  Biso   1.000  Al
  Al4713   1.0000 0.67500  0.02500  0.77500  Biso   1.000  Al
  Al4714   1.0000 0.67500  0.07500  0.75000  Biso   1.000  Al
  Al4715   1.0000 0.62500  0.02500  0.80000  Biso   1.000  Al
  Al4716   1.0000 0.62500  0.07500  0.82500  Biso   1.000  Al
  Al4717   1.0000 0.67500  0.02500  0.82500  Biso   1.000  Al
  Al4718   1.0000 0.67500  0.07500  0.80000  Biso   1.000  Al
  Al4719   1.0000 0.62500  0.02500  0.85000  Biso   1.000  Al
  Al4720   1.0000 0.62500  0.07500  0.87500  Biso   1.000  Al
  Al4721   1.0000 0.67500  0.02500  0.87500  Biso   1.000  Al
  Al4722   1.0000 0.67500  0.07500  0.85000  Biso   1.000  Al
  Al4723   1.0000 0.62500  0.02500  0.90000  Biso   1.000  Al
  Al4724   1.0000 0.62500  0.07500  0.92500  Biso   1.000  Al
  Al4725   1.0000 0.67500  0.02500  0.92500  Biso   1.000  Al
  Al4726   1.0000 0.67500  0.07500  0.90000  Biso   1.000  Al
  Al4727   1.0000 0.62500  0.02500  0.95000  Biso   1.000  Al
  Al4728   1.0000 0.62500  0.07500  0.97500  Biso   1.000  Al
  Al4729   1.0000 0.67500  0.02500  0.97500  Biso   1.000  Al
  Al4730   1.0000 0.67500  0.07500  0.95000  Biso   1.000  Al
  Al4731   1.0000 0.62500  0.12500  0.00000  Biso   1.000  Al
  Al4732   1.0000 0.62500  0.17500  0.02500  Biso   1.000  Al
  Al4733   1.0000 0.67500  0.12500  0.02500  Biso   1.000  Al
  Al4734   1.0000 0.67500  0.17500  0.00000  Biso   1.000  Al
  Al4735   1.0000 0.62500  0.12500  0.05000  Biso   1.000  Al
  Al4736   1.0000 0.62500  0.17500  0.07500  Biso   1.000  Al
  Al4737   1.0000 0.67500  0.12500  0.07500  Biso   1.000  Al
  Al4738   1.0000 0.67500  0.17500  0.05000  Biso   1.000  Al
  Al4739   1.0000 0.62500  0.12500  0.10000  Biso   1.000  Al
  Al4740   1.0000 0.62500  0.17500  0.12500  Biso   1.000  Al
  Al4741   1.0000 0.67500  0.12500  0.12500  Biso   1.000  Al
  Al4742   1.0000 0.67500  0.17500  0.10000  Biso   1.000  Al
  Al4743   1.0000 0.62500  0.12500  0.15000  Biso   1.000  Al
  Al4744   1.0000 0.62500  0.17500  0.17500  Biso   1.000  Al
  Al4745   1.0000 0.67500  0.12500  0.17500  Biso   1.000  Al
  Al4746   1.0000 0.67500  0.17500  0.15000  Biso   1.000  Al
  Al4747   1.0000 0.62500  0.12500  0.20000  Biso   1.000  Al
  Al4748   1.0000 0.62500  0.17500  0.22500  Biso   1.000  Al
  Al4749   1.0000 0.67500  0.12500  0.22500  Biso   1.000  Al
  Al4750   1.0000 0.67500  0.17500  0.20000  Biso   1.000  Al
  Al4751   1.0000 0.62500  0.12500  0.25000  Biso   1.000  Al
  Al4752   1.0000 0.62500  0.17500  0.27500  Biso   1.000  Al
  Al4753   1.0000 0.67500  0.12500  0.27500  Biso   1.000  Al
  Al4754   1.0000 0.67500  0.17500  0.25000  Biso   1.000  Al
  Al4755   1.0000 0.62500  0.12500  0.30000  Biso   1.000  Al
  Al4756   1.0000 0.62500  0.17500  0.32500  Biso   1.000  Al
  Al4757   1.0000 0.67500  0.12500  0.32500  Biso   1.000  Al
  Al4758   1.0000 0.67500  0.17500  0.30000  Biso   1.000  Al
  Al4759   1.0000 0.62500  0.12500  0.35000  Biso   1.000  Al
  Al4760   1.0000 0.62500  0.17500  0.37500  Biso   1.000  Al
  Al4761   1.0000 0.67500  0.12500  0.37500  Biso   1.000  Al
  Al4762   1.0000 0.67500  0.17500  0.35000  Biso   1.000  Al
  Al4763   1.0000 0.62500  0.12500  0.40000  Biso   1.000  Al
  Al4764   1.0000 0.62500  0.17500  0.42500  Biso   1.000  Al
  Al4765   1.0000 0.67500  0.12500  0.42500  Biso   1.000  Al
  Al4766   1.0000 0.67500  0.17500  0.40000  Biso   1.000  Al
  Al4767   1.0000 0.62500  0.12500  0.45000  Biso   1.000  Al
  Al4768   1.0000 0.62500  0.17500  0.47500  Biso   1.000  Al
  Al4769   1.0000 0.67500  0.12500  0.47500  Biso   1.000  Al
  Al4770   1.0000 0.67500  0.17500  0.45000  Biso   1.000  Al
  Al4771   1.0000 0.62500  0.12500  0.50000  Biso   1.000  Al
  Al4772   1.0000 0.62500  0.17500  0.52500  Biso   1.000  Al
  Al4773   1.0000 0.67500  0.12500  0.52500  Biso   1.000  Al
  Al4774   1.0000 0.67500  0.17500  0.50000  Biso   1.000  Al
  Al4775   1.0000 0.62500  0.12500  0.55000  Biso   1.000  Al
  Al4776   1.0000 0.62500  0.17500  0.57500  Biso   1.000  Al
  Al4777   1.0000 0.67500  0.12500  0.57500  Biso   1.000  Al
  Al4778   1.0000 0.67500  0.17500  0.55000  Biso   1.000  Al
  Al4779   1.0000 0.62500  0.12500  0.60000  Biso   1.000  Al
  Al4780   1.0000 0.62500  0.17500  0.62500  Biso   1.000  Al
  Al4781   1.0000 0.67500  0.12500  0.62500  Biso   1.000  Al
  Al4782   1.0000 0.67500  0.17500  0.60000  Biso   1.000  Al
  Al4783   1.0000 0.62500  0.12500  0.65000  Biso   1.000  Al
  Al4784   1.0000 0.62500  0.17500  0.67500  Biso   1.000  Al
  Al4785   1.0000 0.67500  0.12500  0.67500  Biso   1.000  Al
  Al4786   1.0000 0.67500  0.17500  0.65000  Biso   1.000  Al
  Al4787   1.0000 0.62500  0.12500  0.70000  Biso   1.000  Al
  Al4788   1.0000 0.62500  0.17500  0.72500  Biso   1.000  Al
  Al4789   1.0000 0.67500  0.12500  0.72500  Biso   1.000  Al
  Al4790   1.0000 0.67500  0.17500  0.70000  Biso   1.000  Al
  Al4791   1.0000 0.62500  0.12500  0.75000  Biso   1.000  Al
  Al4792   1.0000 0.62500  0.17500  0.77500  Biso   1.000  Al
  Al4793   1.0000 0.67500  0.12500  0.77500  Biso   1.000  Al
  Al4794   1.0000 0.67500  0.17500  0.75000  Biso   1.000  Al
  Al4795   1.0000 0.62500  0.12500  0.80000  Biso   1.000  Al
  Al4796   1.0000 0.62500  0.17500  0.82500  Biso   1.000  Al
  Al4797   1.0000 0.67500  0.12500  0.82500  Biso   1.000  Al
  Al4798   1.0000 0.67500  0.17500  0.80000  Biso   1.000  Al
  Al4799   1.0000 0.62500  0.12500  0.85000  Biso   1.000  Al
  Al4800   1.0000 0.62500  0.17500  0.87500  Biso   1.000  Al
  Al4801   1.0000 0.67500  0.12500  0.87500  Biso   1.000  Al
  Al4802   1.0000 0.67500  0.17500  0.85000  Biso   1.000  Al
  Al4803   1.0000 0.62500  0.12500  0.90000  Biso   1.000  Al
  Al4804   1.0000 0.62500  0.17500  0.92500  Biso   1.000  Al
  Al4805   1.0000 0.67500  0.12500  0.92500  Biso   1.000  Al
  Al4806   1.0000 0.67500  0.17500  0.90000  Biso   1.000  Al
  Al4807   1.0000 0.62500  0.12500  0.95000  Biso   1.000  Al
  Al4808   1.0000 0.62500  0.17500  0.97500  Biso   1.000  Al
  Al4809   1.0000 0.67500  0.12500  0.97500  Biso   1.000  Al
  Al4810   1.0000 0.67500  0.17500  0.95000  Biso   1.000  Al
  Al4811   1.0000 0.62500  0.22500  0.00000  Biso   1.000  Al
  Al4812   1.0000 0.62500  0.27500  0.02500  Biso   1.000  Al
  Al4813   1.0000 0.67500  0.22500  0.02500  Biso   1.000  Al
  Al4814   1.0000 0.67500  0.27500  0.00000  Biso   1.000  Al
  Al4815   1.0000 0.62500  0.22500  0.05000  Biso   1.000  Al
  Al4816   1.0000 0.62500  0.27500  0.07500  Biso   1.000  Al
  Al4817   1.0000 0.67500  0.22500  0.07500  Biso   1.000  Al
  Al4818   1.0000 0.67500  0.27500  0.05000  Biso   1.000  Al
  Al4819   1.0000 0.62500  0.22500  0.10000  Biso   1.000  Al
  Al4820   1.0000 0.62500  0.27500  0.12500  Biso   1.000  Al
  Al4821   1.0000 0.67500  0.22500  0.12500  Biso   1.000  Al
  Al4822   1.0000 0.67500  0.27500  0.10000  Biso   1.000  Al
  Al4823   1.0000 0.62500  0.22500  0.15000  Biso   1.000  Al
  Al4824   1.0000 0.62500  0.27500  0.17500  Biso   1.000  Al
  Al4825   1.0000 0.67500  0.22500  0.17500  Biso   1.000  Al
  Al4826   1.0000 0.67500  0.27500  0.15000  Biso   1.000  Al
  Al4827   1.0000 0.62500  0.22500  0.20000  Biso   1.000  Al
  Al4828   1.0000 0.62500  0.27500  0.22500  Biso   1.000  Al
  Al4829   1.0000 0.67500  0.22500  0.22500  Biso   1.000  Al
  Al4830   1.0000 0.67500  0.27500  0.20000  Biso   1.000  Al
  Al4831   1.0000 0.62500  0.22500  0.25000  Biso   1.000  Al
  Al4832   1.0000 0.62500  0.27500  0.27500  Biso   1.000  Al
  Al4833   1.0000 0.67500  0.22500  0.27500  Biso   1.000  Al
  Al4834   1.0000 0.67500  0.27500  0.25000  Biso   1.000  Al
  Al4835   1.0000 0.62500  0.22500  0.30000  Biso   1.000  Al
  Al4836   1.0000 0.62500  0.27500  0.32500  Biso   1.000  Al
  Al4837   1.0000 0.67500  0.22500  0.32500  Biso   1.000  Al
  Al4838   1.0000 0.67500  0.27500  0.30000  Biso   1.000  Al
  Al4839   1.0000 0.62500  0.22500  0.35000  Biso   1.000  Al
  Al4840   1.0000 0.62500  0.27500  0.37500  Biso   1.000  Al
  Al4841   1.0000 0.67500  0.22500  0.37500  Biso   1.000  Al
  Al4842   1.0000 0.67500  0.27500  0.35000  Biso   1.000  Al
  Al4843   1.0000 0.62500  0.22500  0.40000  Biso   1.000  Al
  Al4844   1.0000 0.62500  0.27500  0.42500  Biso   1.000  Al
  Al4845   1.0000 0.67500  0.22500  0.42500  Biso   1.000  Al
  Al4846   1.0000 0.67500  0.27500  0.40000  Biso   1.000  Al
  Al4847   1.0000 0.62500  0.22500  0.45000  Biso   1.000  Al
  Al4848   1.0000 0.62500  0.27500  0.47500  Biso   1.000  Al
  Al4849   1.0000 0.67500  0.22500  0.47500  Biso   1.000  Al
  Al4850   1.0000 0.67500  0.27500  0.45000  Biso   1.000  Al
  Al4851   1.0000 0.62500  0.22500  0.50000  Biso   1.000  Al
  Al4852   1.0000 0.62500  0.27500  0.52500  Biso   1.000  Al
  Al4853   1.0000 0.67500  0.22500  0.52500  Biso   1.000  Al
  Al4854   1.0000 0.67500  0.27500  0.50000  Biso   1.000  Al
  Al4855   1.0000 0.62500  0.22500  0.55000  Biso   1.000  Al
  Al4856   1.0000 0.62500  0.27500  0.57500  Biso   1.000  Al
  Al4857   1.0000 0.67500  0.22500  0.57500  Biso   1.000  Al
  Al4858   1.0000 0.67500  0.27500  0.55000  Biso   1.000  Al
  Al4859   1.0000 0.62500  0.22500  0.60000  Biso   1.000  Al
  Al4860   1.0000 0.62500  0.27500  0.62500  Biso   1.000  Al
  Al4861   1.0000 0.67500  0.22500  0.62500  Biso   1.000  Al
  Al4862   1.0000 0.67500  0.27500  0.60000  Biso   1.000  Al
  Al4863   1.0000 0.62500  0.22500  0.65000  Biso   1.000  Al
  Al4864   1.0000 0.62500  0.27500  0.67500  Biso   1.000  Al
  Al4865   1.0000 0.67500  0.22500  0.67500  Biso   1.000  Al
  Al4866   1.0000 0.67500  0.27500  0.65000  Biso   1.000  Al
  Al4867   1.0000 0.62500  0.22500  0.70000  Biso   1.000  Al
  Al4868   1.0000 0.62500  0.27500  0.72500  Biso   1.000  Al
  Al4869   1.0000 0.67500  0.22500  0.72500  Biso   1.000  Al
  Al4870   1.0000 0.67500  0.27500  0.70000  Biso   1.000  Al
  Al4871   1.0000 0.62500  0.22500  0.75000  Biso   1.000  Al
  Al4872   1.0000 0.62500  0.27500  0.77500  Biso   1.000  Al
  Al4873   1.0000 0.67500  0.22500  0.77500  Biso   1.000  Al
  Al4874   1.0000 0.67500  0.27500  0.75000  Biso   1.000  Al
  Al4875   1.0000 0.62500  0.22500  0.80000  Biso   1.000  Al
  Al4876   1.0000 0.62500  0.27500  0.82500  Biso   1.000  Al
  Al4877   1.0000 0.67500  0.22500  0.82500  Biso   1.000  Al
  Al4878   1.0000 0.67500  0.27500  0.80000  Biso   1.000  Al
  Al4879   1.0000 0.62500  0.22500  0.85000  Biso   1.000  Al
  Al4880   1.0000 0.62500  0.27500  0.87500  Biso   1.000  Al
  Al4881   1.0000 0.67500  0.22500  0.87500  Biso   1.000  Al
  Al4882   1.0000 0.67500  0.27500  0.85000  Biso   1.000  Al
  Al4883   1.0000 0.62500  0.22500  0.90000  Biso   1.000  Al
  Al4884   1.0000 0.62500  0.27500  0.92500  Biso   1.000  Al
  Al4885   1.0000 0.67500  0.22500  0.92500  Biso   1.000  Al
  Al4886   1.0000 0.67500  0.27500  0.90000  Biso   1.000  Al
  Al4887   1.0000 0.62500  0.22500  0.95000  Biso   1.000  Al
  Al4888   1.0000 0.62500  0.27500  0.97500  Biso   1.000  Al
  Al4889   1.0000 0.67500  0.22500  0.97500  Biso   1.000  Al
  Al4890   1.0000 0.67500  0.27500  0.95000  Biso   1.000  Al
  Al4891   1.0000 0.62500  0.32500  0.00000  Biso   1.000  Al
  Al4892   1.0000 0.62500  0.37500  0.02500  Biso   1.000  Al
  Al4893   1.0000 0.67500  0.32500  0.02500  Biso   1.000  Al
  Al4894   1.0000 0.67500  0.37500  0.00000  Biso   1.000  Al
  Al4895   1.0000 0.62500  0.32500  0.05000  Biso   1.000  Al
  Al4896   1.0000 0.62500  0.37500  0.07500  Biso   1.000  Al
  Al4897   1.0000 0.67500  0.32500  0.07500  Biso   1.000  Al
  Al4898   1.0000 0.67500  0.37500  0.05000  Biso   1.000  Al
  Al4899   1.0000 0.62500  0.32500  0.10000  Biso   1.000  Al
  Al4900   1.0000 0.62500  0.37500  0.12500  Biso   1.000  Al
  Al4901   1.0000 0.67500  0.32500  0.12500  Biso   1.000  Al
  Al4902   1.0000 0.67500  0.37500  0.10000  Biso   1.000  Al
  Al4903   1.0000 0.62500  0.32500  0.15000  Biso   1.000  Al
  Al4904   1.0000 0.62500  0.37500  0.17500  Biso   1.000  Al
  Al4905   1.0000 0.67500  0.32500  0.17500  Biso   1.000  Al
  Al4906   1.0000 0.67500  0.37500  0.15000  Biso   1.000  Al
  Al4907   1.0000 0.62500  0.32500  0.20000  Biso   1.000  Al
  Al4908   1.0000 0.62500  0.37500  0.22500  Biso   1.000  Al
  Al4909   1.0000 0.67500  0.32500  0.22500  Biso   1.000  Al
  Al4910   1.0000 0.67500  0.37500  0.20000  Biso   1.000  Al
  Al4911   1.0000 0.62500  0.32500  0.25000  Biso   1.000  Al
  Al4912   1.0000 0.62500  0.37500  0.27500  Biso   1.000  Al
  Al4913   1.0000 0.67500  0.32500  0.27500  Biso   1.000  Al
  Al4914   1.0000 0.67500  0.37500  0.25000  Biso   1.000  Al
  Al4915   1.0000 0.62500  0.32500  0.30000  Biso   1.000  Al
  Al4916   1.0000 0.62500  0.37500  0.32500  Biso   1.000  Al
  Al4917   1.0000 0.67500  0.32500  0.32500  Biso   1.000  Al
  Al4918   1.0000 0.67500  0.37500  0.30000  Biso   1.000  Al
  Al4919   1.0000 0.62500  0.32500  0.35000  Biso   1.000  Al
  Al4920   1.0000 0.62500  0.37500  0.37500  Biso   1.000  Al
  Al4921   1.0000 0.67500  0.32500  0.37500  Biso   1.000  Al
  Al4922   1.0000 0.67500  0.37500  0.35000  Biso   1.000  Al
  Al4923   1.0000 0.62500  0.32500  0.40000  Biso   1.000  Al
  Al4924   1.0000 0.62500  0.37500  0.42500  Biso   1.000  Al
  Al4925   1.0000 0.67500  0.32500  0.42500  Biso   1.000  Al
  Al4926   1.0000 0.67500  0.37500  0.40000  Biso   1.000  Al
  Al4927   1.0000 0.62500  0.32500  0.45000  Biso   1.000  Al
  Al4928   1.0000 0.62500  0.37500  0.47500  Biso   1.000  Al
  Al4929   1.0000 0.67500  0.32500  0.47500  Biso   1.000  Al
  Al4930   1.0000 0.67500  0.37500  0.45000  Biso   1.000  Al
  Al4931   1.0000 0.62500  0.32500  0.50000  Biso   1.000  Al
  Al4932   1.0000 0.62500  0.37500  0.52500  Biso   1.000  Al
  Al4933   1.0000 0.67500  0.32500  0.52500  Biso   1.000  Al
  Al4934   1.0000 0.67500  0.37500  0.50000  Biso   1.000  Al
  Al4935   1.0000 0.62500  0.32500  0.55000  Biso   1.000  Al
  Al4936   1.0000 0.62500  0.37500  0.57500  Biso   1.000  Al
  Al4937   1.0000 0.67500  0.32500  0.57500  Biso   1.000  Al
  Al4938   1.0000 0.67500  0.37500  0.55000  Biso   1.000  Al
  Al4939   1.0000 0.62500  0.32500  0.60000  Biso   1.000  Al
  Al4940   1.0000 0.62500  0.37500  0.62500  Biso   1.000  Al
  Al4941   1.0000 0.67500  0.32500  0.62500  Biso   1.000  Al
  Al4942   1.0000 0.67500  0.37500  0.60000  Biso   1.000  Al
  Al4943   1.0000 0.62500  0.32500  0.65000  Biso   1.000  Al
  Al4944   1.0000 0.62500  0.37500  0.67500  Biso   1.000  Al
  Al4945   1.0000 0.67500  0.32500  0.67500  Biso   1.000  Al
  Al4946   1.0000 0.67500  0.37500  0.65000  Biso   1.000  Al
  Al4947   1.0000 0.62500  0.32500  0.70000  Biso   1.000  Al
  Al4948   1.0000 0.62500  0.37500  0.72500  Biso   1.000  Al
  Al4949   1.0000 0.67500  0.32500  0.72500  Biso   1.000  Al
  Al4950   1.0000 0.67500  0.37500  0.70000  Biso   1.000  Al
  Al4951   1.0000 0.62500  0.32500  0.75000  Biso   1.000  Al
  Al4952   1.0000 0.62500  0.37500  0.77500  Biso   1.000  Al
  Al4953   1.0000 0.67500  0.32500  0.77500  Biso   1.000  Al
  Al4954   1.0000 0.67500  0.37500  0.75000  Biso   1.000  Al
  Al4955   1.0000 0.62500  0.32500  0.80000  Biso   1.000  Al
  Al4956   1.0000 0.62500  0.37500  0.82500  Biso   1.000  Al
  Al4957   1.0000 0.67500  0.32500  0.82500  Biso   1.000  Al
  Al4958   1.0000 0.67500  0.37500  0.80000  Biso   1.000  Al
  Al4959   1.0000 0.62500  0.32500  0.85000  Biso   1.000  Al
  Al4960   1.0000 0.62500  0.37500  0.87500  Biso   1.000  Al
  Al4961   1.0000 0.67500  0.32500  0.87500  Biso   1.000  Al
  Al4962   1.0000 0.67500  0.37500  0.85000  Biso   1.000  Al
  Al4963   1.0000 0.62500  0.32500  0.90000  Biso   1.000  Al
  Al4964   1.0000 0.62500  0.37500  0.92500  Biso   1.000  Al
  Al4965   1.0000 0.67500  0.32500  0.92500  Biso   1.000  Al
  Al4966   1.0000 0.67500  0.37500  0.90000  Biso   1.000  Al
  Al4967   1.0000 0.62500  0.32500  0.95000  Biso   1.000  Al
  Al4968   1.0000 0.62500  0.37500  0.97500  Biso   1.000  Al
  Al4969   1.0000 0.67500  0.32500  0.97500  Biso   1.000  Al
  Al4970   1.0000 0.67500  0.37500  0.95000  Biso   1.000  Al
  Al4971   1.0000 0.62500  0.42500  0.00000  Biso   1.000  Al
  Al4972   1.0000 0.62500  0.47500  0.02500  Biso   1.000  Al
  Al4973   1.0000 0.67500  0.42500  0.02500  Biso   1.000  Al
  Al4974   1.0000 0.67500  0.47500  0.00000  Biso   1.000  Al
  Al4975   1.0000 0.62500  0.42500  0.05000  Biso   1.000  Al
  Al4976   1.0000 0.62500  0.47500  0.07500  Biso   1.000  Al
  Al4977   1.0000 0.67500  0.42500  0.07500  Biso   1.000  Al
  Al4978   1.0000 0.67500  0.47500  0.05000  Biso   1.000  Al
  Al4979   1.0000 0.62500  0.42500  0.10000  Biso   1.000  Al
  Al4980   1.0000 0.62500  0.47500  0.12500  Biso   1.000  Al
  Al4981   1.0000 0.67500  0.42500  0.12500  Biso   1.000  Al
  Al4982   1.0000 0.67500  0.47500  0.10000  Biso   1.000  Al
  Al4983   1.0000 0.62500  0.42500  0.15000  Biso   1.000  Al
  Al4984   1.0000 0.62500  0.47500  0.17500  Biso   1.000  Al
  Al4985   1.0000 0.67500  0.42500  0.17500  Biso   1.000  Al
  Al4986   1.0000 0.67500  0.47500  0.15000  Biso   1.000  Al
  Al4987   1.0000 0.62500  0.42500  0.20000  Biso   1.000  Al
  Al4988   1.0000 0.62500  0.47500  0.22500  Biso   1.000  Al
  Al4989   1.0000 0.67500  0.42500  0.22500  Biso   1.000  Al
  Al4990   1.0000 0.67500  0.47500  0.20000  Biso   1.000  Al
  Al4991   1.0000 0.62500  0.42500  0.25000  Biso   1.000  Al
  Al4992   1.0000 0.62500  0.47500  0.27500  Biso   1.000  Al
  Al4993   1.0000 0.67500  0.42500  0.27500  Biso   1.000  Al
  Al4994   1.0000 0.67500  0.47500  0.25000  Biso   1.000  Al
  Al4995   1.0000 0.62500  0.42500  0.30000  Biso   1.000  Al
  Al4996   1.0000 0.62500  0.47500  0.32500  Biso   1.000  Al
  Al4997   1.0000 0.67500  0.42500  0.32500  Biso   1.000  Al
  Al4998   1.0000 0.67500  0.47500  0.30000  Biso   1.000  Al
  Al4999   1.0000 0.62500  0.42500  0.35000  Biso   1.000  Al
  Al5000   1.0000 0.62500  0.47500  0.37500  Biso   1.000  Al
  Al5001   1.0000 0.67500  0.42500  0.37500  Biso   1.000  Al
  Al5002   1.0000 0.67500  0.47500  0.35000  Biso   1.000  Al
  Al5003   1.0000 0.62500  0.42500  0.40000  Biso   1.000  Al
  Al5004   1.0000 0.62500  0.47500  0.42500  Biso   1.000  Al
  Al5005   1.0000 0.67500  0.42500  0.42500  Biso   1.000  Al
  Al5006   1.0000 0.67500  0.47500  0.40000  Biso   1.000  Al
  Al5007   1.0000 0.62500  0.42500  0.45000  Biso   1.000  Al
  Al5008   1.0000 0.62500  0.47500  0.47500  Biso   1.000  Al
  Al5009   1.0000 0.67500  0.42500  0.47500  Biso   1.000  Al
  Al5010   1.0000 0.67500  0.47500  0.45000  Biso   1.000  Al
  Al5011   1.0000 0.62500  0.42500  0.50000  Biso   1.000  Al
  Al5012   1.0000 0.62500  0.47500  0.52500  Biso   1.000  Al
  Al5013   1.0000 0.67500  0.42500  0.52500  Biso   1.000  Al
  Al5014   1.0000 0.67500  0.47500  0.50000  Biso   1.000  Al
  Al5015   1.0000 0.62500  0.42500  0.55000  Biso   1.000  Al
  Al5016   1.0000 0.62500  0.47500  0.57500  Biso   1.000  Al
  Al5017   1.0000 0.67500  0.42500  0.57500  Biso   1.000  Al
  Al5018   1.0000 0.67500  0.47500  0.55000  Biso   1.000  Al
  Al5019   1.0000 0.62500  0.42500  0.60000  Biso   1.000  Al
  Al5020   1.0000 0.62500  0.47500  0.62500  Biso   1.000  Al
  Al5021   1.0000 0.67500  0.42500  0.62500  Biso   1.000  Al
  Al5022   1.0000 0.67500  0.47500  0.60000  Biso   1.000  Al
  Al5023   1.0000 0.62500  0.42500  0.65000  Biso   1.000  Al
  Al5024   1.0000 0.62500  0.47500  0.67500  Biso   1.000  Al
  Al5025   1.0000 0.67500  0.42500  0.67500  Biso   1.000  Al
  Al5026   1.0000 0.67500  0.47500  0.65000  Biso   1.000  Al
  Al5027   1.0000 0.62500  0.42500  0.70000  Biso   1.000  Al
  Al5028   1.0000 0.62500  0.47500  0.72500  Biso   1.000  Al
  Al5029   1.0000 0.67500  0.42500  0.72500  Biso   1.000  Al
  Al5030   1.0000 0.67500  0.47500  0.70000  Biso   1.000  Al
  Al5031   1.0000 0.62500  0.42500  0.75000  Biso   1.000  Al
  Al5032   1.0000 0.62500  0.47500  0.77500  Biso   1.000  Al
  Al5033   1.0000 0.67500  0.42500  0.77500  Biso   1.000  Al
  Al5034   1.0000 0.67500  0.47500  0.75000  Biso   1.000  Al
  Al5035   1.0000 0.62500  0.42500  0.80000  Biso   1.000  Al
  Al5036   1.0000 0.62500  0.47500  0.82500  Biso   1.000  Al
  Al5037   1.0000 0.67500  0.42500  0.82500  Biso   1.000  Al
  Al5038   1.0000 0.67500  0.47500  0.80000  Biso   1.000  Al
  Al5039   1.0000 0.62500  0.42500  0.85000  Biso   1.000  Al
  Al5040   1.0000 0.62500  0.47500  0.87500  Biso   1.000  Al
  Al5041   1.0000 0.67500  0.42500  0.87500  Biso   1.000  Al
  Al5042   1.0000 0.67500  0.47500  0.85000  Biso   1.000  Al
  Al5043   1.0000 0.62500  0.42500  0.90000  Biso   1.000  Al
  Al5044   1.0000 0.62500  0.47500  0.92500  Biso   1.000  Al
  Al5045   1.0000 0.67500  0.42500  0.92500  Biso   1.000  Al
  Al5046   1.0000 0.67500  0.47500  0.90000  Biso   1.000  Al
  Al5047   1.0000 0.62500  0.42500  0.95000  Biso   1.000  Al
  Al5048   1.0000 0.62500  0.47500  0.97500  Biso   1.000  Al
  Al5049   1.0000 0.67500  0.42500  0.97500  Biso   1.000  Al
  Al5050   1.0000 0.67500  0.47500  0.95000  Biso   1.000  Al
  Al5051   1.0000 0.62500  0.52500  0.00000  Biso   1.000  Al
  Al5052   1.0000 0.62500  0.57500  0.02500  Biso   1.000  Al
  Al5053   1.0000 0.67500  0.52500  0.02500  Biso   1.000  Al
  Al5054   1.0000 0.67500  0.57500  0.00000  Biso   1.000  Al
  Al5055   1.0000 0.62500  0.52500  0.05000  Biso   1.000  Al
  Al5056   1.0000 0.62500  0.57500  0.07500  Biso   1.000  Al
  Al5057   1.0000 0.67500  0.52500  0.07500  Biso   1.000  Al
  Al5058   1.0000 0.67500  0.57500  0.05000  Biso   1.000  Al
  Al5059   1.0000 0.62500  0.52500  0.10000  Biso   1.000  Al
  Al5060   1.0000 0.62500  0.57500  0.12500  Biso   1.000  Al
  Al5061   1.0000 0.67500  0.52500  0.12500  Biso   1.000  Al
  Al5062   1.0000 0.67500  0.57500  0.10000  Biso   1.000  Al
  Al5063   1.0000 0.62500  0.52500  0.15000  Biso   1.000  Al
  Al5064   1.0000 0.62500  0.57500  0.17500  Biso   1.000  Al
  Al5065   1.0000 0.67500  0.52500  0.17500  Biso   1.000  Al
  Al5066   1.0000 0.67500  0.57500  0.15000  Biso   1.000  Al
  Al5067   1.0000 0.62500  0.52500  0.20000  Biso   1.000  Al
  Al5068   1.0000 0.62500  0.57500  0.22500  Biso   1.000  Al
  Al5069   1.0000 0.67500  0.52500  0.22500  Biso   1.000  Al
  Al5070   1.0000 0.67500  0.57500  0.20000  Biso   1.000  Al
  Al5071   1.0000 0.62500  0.52500  0.25000  Biso   1.000  Al
  Al5072   1.0000 0.62500  0.57500  0.27500  Biso   1.000  Al
  Al5073   1.0000 0.67500  0.52500  0.27500  Biso   1.000  Al
  Al5074   1.0000 0.67500  0.57500  0.25000  Biso   1.000  Al
  Al5075   1.0000 0.62500  0.52500  0.30000  Biso   1.000  Al
  Al5076   1.0000 0.62500  0.57500  0.32500  Biso   1.000  Al
  Al5077   1.0000 0.67500  0.52500  0.32500  Biso   1.000  Al
  Al5078   1.0000 0.67500  0.57500  0.30000  Biso   1.000  Al
  Al5079   1.0000 0.62500  0.52500  0.35000  Biso   1.000  Al
  Al5080   1.0000 0.62500  0.57500  0.37500  Biso   1.000  Al
  Al5081   1.0000 0.67500  0.52500  0.37500  Biso   1.000  Al
  Al5082   1.0000 0.67500  0.57500  0.35000  Biso   1.000  Al
  Al5083   1.0000 0.62500  0.52500  0.40000  Biso   1.000  Al
  Al5084   1.0000 0.62500  0.57500  0.42500  Biso   1.000  Al
  Al5085   1.0000 0.67500  0.52500  0.42500  Biso   1.000  Al
  Al5086   1.0000 0.67500  0.57500  0.40000  Biso   1.000  Al
  Al5087   1.0000 0.62500  0.52500  0.45000  Biso   1.000  Al
  Al5088   1.0000 0.62500  0.57500  0.47500  Biso   1.000  Al
  Al5089   1.0000 0.67500  0.52500  0.47500  Biso   1.000  Al
  Al5090   1.0000 0.67500  0.57500  0.45000  Biso   1.000  Al
  Al5091   1.0000 0.62500  0.52500  0.50000  Biso   1.000  Al
  Al5092   1.0000 0.62500  0.57500  0.52500  Biso   1.000  Al
  Al5093   1.0000 0.67500  0.52500  0.52500  Biso   1.000  Al
  Al5094   1.0000 0.67500  0.57500  0.50000  Biso   1.000  Al
  Al5095   1.0000 0.62500  0.52500  0.55000  Biso   1.000  Al
  Al5096   1.0000 0.62500  0.57500  0.57500  Biso   1.000  Al
  Al5097   1.0000 0.67500  0.52500  0.57500  Biso   1.000  Al
  Al5098   1.0000 0.67500  0.57500  0.55000  Biso   1.000  Al
  Al5099   1.0000 0.62500  0.52500  0.60000  Biso   1.000  Al
  Al5100   1.0000 0.62500  0.57500  0.62500  Biso   1.000  Al
  Al5101   1.0000 0.67500  0.52500  0.62500  Biso   1.000  Al
  Al5102   1.0000 0.67500  0.57500  0.60000  Biso   1.000  Al
  Al5103   1.0000 0.62500  0.52500  0.65000  Biso   1.000  Al
  Al5104   1.0000 0.62500  0.57500  0.67500  Biso   1.000  Al
  Al5105   1.0000 0.67500  0.52500  0.67500  Biso   1.000  Al
  Al5106   1.0000 0.67500  0.57500  0.65000  Biso   1.000  Al
  Al5107   1.0000 0.62500  0.52500  0.70000  Biso   1.000  Al
  Al5108   1.0000 0.62500  0.57500  0.72500  Biso   1.000  Al
  Al5109   1.0000 0.67500  0.52500  0.72500  Biso   1.000  Al
  Al5110   1.0000 0.67500  0.57500  0.70000  Biso   1.000  Al
  Al5111   1.0000 0.62500  0.52500  0.75000  Biso   1.000  Al
  Al5112   1.0000 0.62500  0.57500  0.77500  Biso   1.000  Al
  Al5113   1.0000 0.67500  0.52500  0.77500  Biso   1.000  Al
  Al5114   1.0000 0.67500  0.57500  0.75000  Biso   1.000  Al
  Al5115   1.0000 0.62500  0.52500  0.80000  Biso   1.000  Al
  Al5116   1.0000 0.62500  0.57500  0.82500  Biso   1.000  Al
  Al5117   1.0000 0.67500  0.52500  0.82500  Biso   1.000  Al
  Al5118   1.0000 0.67500  0.57500  0.80000  Biso   1.000  Al
  Al5119   1.0000 0.62500  0.52500  0.85000  Biso   1.000  Al
  Al5120   1.0000 0.62500  0.57500  0.87500  Biso   1.000  Al
  Al5121   1.0000 0.67500  0.52500  0.87500  Biso   1.000  Al
  Al5122   1.0000 0.67500  0.57500  0.85000  Biso   1.000  Al
  Al5123   1.0000 0.62500  0.52500  0.90000  Biso   1.000  Al
  Al5124   1.0000 0.62500  0.57500  0.92500  Biso   1.000  Al
  Al5125   1.0000 0.67500  0.52500  0.92500  Biso   1.000  Al
  Al5126   1.0000 0.67500  0.57500  0.90000  Biso   1.000  Al
  Al5127   1.0000 0.62500  0.52500  0.95000  Biso   1.000  Al
  Al5128   1.0000 0.62500  0.57500  0.97500  Biso   1.000  Al
  Al5129   1.0000 0.67500  0.52500  0.97500  Biso   1.000  Al
  Al5130   1.0000 0.67500  0.57500  0.95000  Biso   1.000  Al
  Al5131   1.0000 0.62500  0.62500  0.00000  Biso   1.000  Al
  Al5132   1.0000 0.62500  0.67500  0.02500  Biso   1.000  Al
  Al5133   1.0000 0.67500  0.62500  0.02500  Biso   1.000  Al
  Al5134   1.0000 0.67500  0.67500  0.00000  Biso   1.000  Al
  Al5135   1.0000 0.62500  0.62500  0.05000  Biso   1.000  Al
  Al5136   1.0000 0.62500  0.67500  0.07500  Biso   1.000  Al
  Al5137   1.0000 0.67500  0.62500  0.07500  Biso   1.000  Al
  Al5138   1.0000 0.67500  0.67500  0.05000  Biso   1.000  Al
  Al5139   1.0000 0.62500  0.62500  0.10000  Biso   1.000  Al
  Al5140   1.0000 0.62500  0.67500  0.12500  Biso   1.000  Al
  Al5141   1.0000 0.67500  0.62500  0.12500  Biso   1.000  Al
  Al5142   1.0000 0.67500  0.67500  0.10000  Biso   1.000  Al
  Al5143   1.0000 0.62500  0.62500  0.15000  Biso   1.000  Al
  Al5144   1.0000 0.62500  0.67500  0.17500  Biso   1.000  Al
  Al5145   1.0000 0.67500  0.62500  0.17500  Biso   1.000  Al
  Al5146   1.0000 0.67500  0.67500  0.15000  Biso   1.000  Al
  Al5147   1.0000 0.62500  0.62500  0.20000  Biso   1.000  Al
  Al5148   1.0000 0.62500  0.67500  0.22500  Biso   1.000  Al
  Al5149   1.0000 0.67500  0.62500  0.22500  Biso   1.000  Al
  Al5150   1.0000 0.67500  0.67500  0.20000  Biso   1.000  Al
  Al5151   1.0000 0.62500  0.62500  0.25000  Biso   1.000  Al
  Al5152   1.0000 0.62500  0.67500  0.27500  Biso   1.000  Al
  Al5153   1.0000 0.67500  0.62500  0.27500  Biso   1.000  Al
  Al5154   1.0000 0.67500  0.67500  0.25000  Biso   1.000  Al
  Al5155   1.0000 0.62500  0.62500  0.30000  Biso   1.000  Al
  Al5156   1.0000 0.62500  0.67500  0.32500  Biso   1.000  Al
  Al5157   1.0000 0.67500  0.62500  0.32500  Biso   1.000  Al
  Al5158   1.0000 0.67500  0.67500  0.30000  Biso   1.000  Al
  Al5159   1.0000 0.62500  0.62500  0.35000  Biso   1.000  Al
  Al5160   1.0000 0.62500  0.67500  0.37500  Biso   1.000  Al
  Al5161   1.0000 0.67500  0.62500  0.37500  Biso   1.000  Al
  Al5162   1.0000 0.67500  0.67500  0.35000  Biso   1.000  Al
  Al5163   1.0000 0.62500  0.62500  0.40000  Biso   1.000  Al
  Al5164   1.0000 0.62500  0.67500  0.42500  Biso   1.000  Al
  Al5165   1.0000 0.67500  0.62500  0.42500  Biso   1.000  Al
  Al5166   1.0000 0.67500  0.67500  0.40000  Biso   1.000  Al
  Al5167   1.0000 0.62500  0.62500  0.45000  Biso   1.000  Al
  Al5168   1.0000 0.62500  0.67500  0.47500  Biso   1.000  Al
  Al5169   1.0000 0.67500  0.62500  0.47500  Biso   1.000  Al
  Al5170   1.0000 0.67500  0.67500  0.45000  Biso   1.000  Al
  Al5171   1.0000 0.62500  0.62500  0.50000  Biso   1.000  Al
  Al5172   1.0000 0.62500  0.67500  0.52500  Biso   1.000  Al
  Al5173   1.0000 0.67500  0.62500  0.52500  Biso   1.000  Al
  Al5174   1.0000 0.67500  0.67500  0.50000  Biso   1.000  Al
  Al5175   1.0000 0.62500  0.62500  0.55000  Biso   1.000  Al
  Al5176   1.0000 0.62500  0.67500  0.57500  Biso   1.000  Al
  Al5177   1.0000 0.67500  0.62500  0.57500  Biso   1.000  Al
  Al5178   1.0000 0.67500  0.67500  0.55000  Biso   1.000  Al
  Al5179   1.0000 0.62500  0.62500  0.60000  Biso   1.000  Al
  Al5180   1.0000 0.62500  0.67500  0.62500  Biso   1.000  Al
  Al5181   1.0000 0.67500  0.62500  0.62500  Biso   1.000  Al
  Al5182   1.0000 0.67500  0.67500  0.60000  Biso   1.000  Al
  Al5183   1.0000 0.62500  0.62500  0.65000  Biso   1.000  Al
  Al5184   1.0000 0.62500  0.67500  0.67500  Biso   1.000  Al
  Al5185   1.0000 0.67500  0.62500  0.67500  Biso   1.000  Al
  Al5186   1.0000 0.67500  0.67500  0.65000  Biso   1.000  Al
  Al5187   1.0000 0.62500  0.62500  0.70000  Biso   1.000  Al
  Al5188   1.0000 0.62500  0.67500  0.72500  Biso   1.000  Al
  Al5189   1.0000 0.67500  0.62500  0.72500  Biso   1.000  Al
  Al5190   1.0000 0.67500  0.67500  0.70000  Biso   1.000  Al
  Al5191   1.0000 0.62500  0.62500  0.75000  Biso   1.000  Al
  Al5192   1.0000 0.62500  0.67500  0.77500  Biso   1.000  Al
  Al5193   1.0000 0.67500  0.62500  0.77500  Biso   1.000  Al
  Al5194   1.0000 0.67500  0.67500  0.75000  Biso   1.000  Al
  Al5195   1.0000 0.62500  0.62500  0.80000  Biso   1.000  Al
  Al5196   1.0000 0.62500  0.67500  0.82500  Biso   1.000  Al
  Al5197   1.0000 0.67500  0.62500  0.82500  Biso   1.000  Al
  Al5198   1.0000 0.67500  0.67500  0.80000  Biso   1.000  Al
  Al5199   1.0000 0.62500  0.62500  0.85000  Biso   1.000  Al
  Al5200   1.0000 0.62500  0.67500  0.87500  Biso   1.000  Al
  Al5201   1.0000 0.67500  0.62500  0.87500  Biso   1.000  Al
  Al5202   1.0000 0.67500  0.67500  0.85000  Biso   1.000  Al
  Al5203   1.0000 0.62500  0.62500  0.90000  Biso   1.000  Al
  Al5204   1.0000 0.62500  0.67500  0.92500  Biso   1.000  Al
  Al5205   1.0000 0.67500  0.62500  0.92500  Biso   1.000  Al
  Al5206   1.0000 0.67500  0.67500  0.90000  Biso   1.000  Al
  Al5207   1.0000 0.62500  0.62500  0.95000  Biso   1.000  Al
  Al5208   1.0000 0.62500  0.67500  0.97500  Biso   1.000  Al
  Al5209   1.0000 0.67500  0.62500  0.97500  Biso   1.000  Al
  Al5210   1.0000 0.67500  0.67500  0.95000  Biso   1.000  Al
  Al5211   1.0000 0.62500  0.72500  0.00000  Biso   1.000  Al
  Al5212   1.0000 0.62500  0.77500  0.02500  Biso   1.000  Al
  Al5213   1.0000 0.67500  0.72500  0.02500  Biso   1.000  Al
  Al5214   1.0000 0.67500  0.77500  0.00000  Biso   1.000  Al
  Al5215   1.0000 0.62500  0.72500  0.05000  Biso   1.000  Al
  Al5216   1.0000 0.62500  0.77500  0.07500  Biso   1.000  Al
  Al5217   1.0000 0.67500  0.72500  0.07500  Biso   1.000  Al
  Al5218   1.0000 0.67500  0.77500  0.05000  Biso   1.000  Al
  Al5219   1.0000 0.62500  0.72500  0.10000  Biso   1.000  Al
  Al5220   1.0000 0.62500  0.77500  0.12500  Biso   1.000  Al
  Al5221   1.0000 0.67500  0.72500  0.12500  Biso   1.000  Al
  Al5222   1.0000 0.67500  0.77500  0.10000  Biso   1.000  Al
  Al5223   1.0000 0.62500  0.72500  0.15000  Biso   1.000  Al
  Al5224   1.0000 0.62500  0.77500  0.17500  Biso   1.000  Al
  Al5225   1.0000 0.67500  0.72500  0.17500  Biso   1.000  Al
  Al5226   1.0000 0.67500  0.77500  0.15000  Biso   1.000  Al
  Al5227   1.0000 0.62500  0.72500  0.20000  Biso   1.000  Al
  Al5228   1.0000 0.62500  0.77500  0.22500  Biso   1.000  Al
  Al5229   1.0000 0.67500  0.72500  0.22500  Biso   1.000  Al
  Al5230   1.0000 0.67500  0.77500  0.20000  Biso   1.000  Al
  Al5231   1.0000 0.62500  0.72500  0.25000  Biso   1.000  Al
  Al5232   1.0000 0.62500  0.77500  0.27500  Biso   1.000  Al
  Al5233   1.0000 0.67500  0.72500  0.27500  Biso   1.000  Al
  Al5234   1.0000 0.67500  0.77500  0.25000  Biso   1.000  Al
  Al5235   1.0000 0.62500  0.72500  0.30000  Biso   1.000  Al
  Al5236   1.0000 0.62500  0.77500  0.32500  Biso   1.000  Al
  Al5237   1.0000 0.67500  0.72500  0.32500  Biso   1.000  Al
  Al5238   1.0000 0.67500  0.77500  0.30000  Biso   1.000  Al
  Al5239   1.0000 0.62500  0.72500  0.35000  Biso   1.000  Al
  Al5240   1.0000 0.62500  0.77500  0.37500  Biso   1.000  Al
  Al5241   1.0000 0.67500  0.72500  0.37500  Biso   1.000  Al
  Al5242   1.0000 0.67500  0.77500  0.35000  Biso   1.000  Al
  Al5243   1.0000 0.62500  0.72500  0.40000  Biso   1.000  Al
  Al5244   1.0000 0.62500  0.77500  0.42500  Biso   1.000  Al
  Al5245   1.0000 0.67500  0.72500  0.42500  Biso   1.000  Al
  Al5246   1.0000 0.67500  0.77500  0.40000  Biso   1.000  Al
  Al5247   1.0000 0.62500  0.72500  0.45000  Biso   1.000  Al
  Al5248   1.0000 0.62500  0.77500  0.47500  Biso   1.000  Al
  Al5249   1.0000 0.67500  0.72500  0.47500  Biso   1.000  Al
  Al5250   1.0000 0.67500  0.77500  0.45000  Biso   1.000  Al
  Al5251   1.0000 0.62500  0.72500  0.50000  Biso   1.000  Al
  Al5252   1.0000 0.62500  0.77500  0.52500  Biso   1.000  Al
  Al5253   1.0000 0.67500  0.72500  0.52500  Biso   1.000  Al
  Al5254   1.0000 0.67500  0.77500  0.50000  Biso   1.000  Al
  Al5255   1.0000 0.62500  0.72500  0.55000  Biso   1.000  Al
  Al5256   1.0000 0.62500  0.77500  0.57500  Biso   1.000  Al
  Al5257   1.0000 0.67500  0.72500  0.57500  Biso   1.000  Al
  Al5258   1.0000 0.67500  0.77500  0.55000  Biso   1.000  Al
  Al5259   1.0000 0.62500  0.72500  0.60000  Biso   1.000  Al
  Al5260   1.0000 0.62500  0.77500  0.62500  Biso   1.000  Al
  Al5261   1.0000 0.67500  0.72500  0.62500  Biso   1.000  Al
  Al5262   1.0000 0.67500  0.77500  0.60000  Biso   1.000  Al
  Al5263   1.0000 0.62500  0.72500  0.65000  Biso   1.000  Al
  Al5264   1.0000 0.62500  0.77500  0.67500  Biso   1.000  Al
  Al5265   1.0000 0.67500  0.72500  0.67500  Biso   1.000  Al
  Al5266   1.0000 0.67500  0.77500  0.65000  Biso   1.000  Al
  Al5267   1.0000 0.62500  0.72500  0.70000  Biso   1.000  Al
  Al5268   1.0000 0.62500  0.77500  0.72500  Biso   1.000  Al
  Al5269   1.0000 0.67500  0.72500  0.72500  Biso   1.000  Al
  Al5270   1.0000 0.67500  0.77500  0.70000  Biso   1.000  Al
  Al5271   1.0000 0.62500  0.72500  0.75000  Biso   1.000  Al
  Al5272   1.0000 0.62500  0.77500  0.77500  Biso   1.000  Al
  Al5273   1.0000 0.67500  0.72500  0.77500  Biso   1.000  Al
  Al5274   1.0000 0.67500  0.77500  0.75000  Biso   1.000  Al
  Al5275   1.0000 0.62500  0.72500  0.80000  Biso   1.000  Al
  Al5276   1.0000 0.62500  0.77500  0.82500  Biso   1.000  Al
  Al5277   1.0000 0.67500  0.72500  0.82500  Biso   1.000  Al
  Al5278   1.0000 0.67500  0.77500  0.80000  Biso   1.000  Al
  Al5279   1.0000 0.62500  0.72500  0.85000  Biso   1.000  Al
  Al5280   1.0000 0.62500  0.77500  0.87500  Biso   1.000  Al
  Al5281   1.0000 0.67500  0.72500  0.87500  Biso   1.000  Al
  Al5282   1.0000 0.67500  0.77500  0.85000  Biso   1.000  Al
  Al5283   1.0000 0.62500  0.72500  0.90000  Biso   1.000  Al
  Al5284   1.0000 0.62500  0.77500  0.92500  Biso   1.000  Al
  Al5285   1.0000 0.67500  0.72500  0.92500  Biso   1.000  Al
  Al5286   1.0000 0.67500  0.77500  0.90000  Biso   1.000  Al
  Al5287   1.0000 0.62500  0.72500  0.95000  Biso   1.000  Al
  Al5288   1.0000 0.62500  0.77500  0.97500  Biso   1.000  Al
  Al5289   1.0000 0.67500  0.72500  0.97500  Biso   1.000  Al
  Al5290   1.0000 0.67500  0.77500  0.95000  Biso   1.000  Al
  Al5291   1.0000 0.62500  0.82500  0.00000  Biso   1.000  Al
  Al5292   1.0000 0.62500  0.87500  0.02500  Biso   1.000  Al
  Al5293   1.0000 0.67500  0.82500  0.02500  Biso   1.000  Al
  Al5294   1.0000 0.67500  0.87500  0.00000  Biso   1.000  Al
  Al5295   1.0000 0.62500  0.82500  0.05000  Biso   1.000  Al
  Al5296   1.0000 0.62500  0.87500  0.07500  Biso   1.000  Al
  Al5297   1.0000 0.67500  0.82500  0.07500  Biso   1.000  Al
  Al5298   1.0000 0.67500  0.87500  0.05000  Biso   1.000  Al
  Al5299   1.0000 0.62500  0.82500  0.10000  Biso   1.000  Al
  Al5300   1.0000 0.62500  0.87500  0.12500  Biso   1.000  Al
  Al5301   1.0000 0.67500  0.82500  0.12500  Biso   1.000  Al
  Al5302   1.0000 0.67500  0.87500  0.10000  Biso   1.000  Al
  Al5303   1.0000 0.62500  0.82500  0.15000  Biso   1.000  Al
  Al5304   1.0000 0.62500  0.87500  0.17500  Biso   1.000  Al
  Al5305   1.0000 0.67500  0.82500  0.17500  Biso   1.000  Al
  Al5306   1.0000 0.67500  0.87500  0.15000  Biso   1.000  Al
  Al5307   1.0000 0.62500  0.82500  0.20000  Biso   1.000  Al
  Al5308   1.0000 0.62500  0.87500  0.22500  Biso   1.000  Al
  Al5309   1.0000 0.67500  0.82500  0.22500  Biso   1.000  Al
  Al5310   1.0000 0.67500  0.87500  0.20000  Biso   1.000  Al
  Al5311   1.0000 0.62500  0.82500  0.25000  Biso   1.000  Al
  Al5312   1.0000 0.62500  0.87500  0.27500  Biso   1.000  Al
  Al5313   1.0000 0.67500  0.82500  0.27500  Biso   1.000  Al
  Al5314   1.0000 0.67500  0.87500  0.25000  Biso   1.000  Al
  Al5315   1.0000 0.62500  0.82500  0.30000  Biso   1.000  Al
  Al5316   1.0000 0.62500  0.87500  0.32500  Biso   1.000  Al
  Al5317   1.0000 0.67500  0.82500  0.32500  Biso   1.000  Al
  Al5318   1.0000 0.67500  0.87500  0.30000  Biso   1.000  Al
  Al5319   1.0000 0.62500  0.82500  0.35000  Biso   1.000  Al
  Al5320   1.0000 0.62500  0.87500  0.37500  Biso   1.000  Al
  Al5321   1.0000 0.67500  0.82500  0.37500  Biso   1.000  Al
  Al5322   1.0000 0.67500  0.87500  0.35000  Biso   1.000  Al
  Al5323   1.0000 0.62500  0.82500  0.40000  Biso   1.000  Al
  Al5324   1.0000 0.62500  0.87500  0.42500  Biso   1.000  Al
  Al5325   1.0000 0.67500  0.82500  0.42500  Biso   1.000  Al
  Al5326   1.0000 0.67500  0.87500  0.40000  Biso   1.000  Al
  Al5327   1.0000 0.62500  0.82500  0.45000  Biso   1.000  Al
  Al5328   1.0000 0.62500  0.87500  0.47500  Biso   1.000  Al
  Al5329   1.0000 0.67500  0.82500  0.47500  Biso   1.000  Al
  Al5330   1.0000 0.67500  0.87500  0.45000  Biso   1.000  Al
  Al5331   1.0000 0.62500  0.82500  0.50000  Biso   1.000  Al
  Al5332   1.0000 0.62500  0.87500  0.52500  Biso   1.000  Al
  Al5333   1.0000 0.67500  0.82500  0.52500  Biso   1.000  Al
  Al5334   1.0000 0.67500  0.87500  0.50000  Biso   1.000  Al
  Al5335   1.0000 0.62500  0.82500  0.55000  Biso   1.000  Al
  Al5336   1.0000 0.62500  0.87500  0.57500  Biso   1.000  Al
  Al5337   1.0000 0.67500  0.82500  0.57500  Biso   1.000  Al
  Al5338   1.0000 0.67500  0.87500  0.55000  Biso   1.000  Al
  Al5339   1.0000 0.62500  0.82500  0.60000  Biso   1.000  Al
  Al5340   1.0000 0.62500  0.87500  0.62500  Biso   1.000  Al
  Al5341   1.0000 0.67500  0.82500  0.62500  Biso   1.000  Al
  Al5342   1.0000 0.67500  0.87500  0.60000  Biso   1.000  Al
  Al5343   1.0000 0.62500  0.82500  0.65000  Biso   1.000  Al
  Al5344   1.0000 0.62500  0.87500  0.67500  Biso   1.000  Al
  Al5345   1.0000 0.67500  0.82500  0.67500  Biso   1.000  Al
  Al5346   1.0000 0.67500  0.87500  0.65000  Biso   1.000  Al
  Al5347   1.0000 0.62500  0.82500  0.70000  Biso   1.000  Al
  Al5348   1.0000 0.62500  0.87500  0.72500  Biso   1.000  Al
  Al5349   1.0000 0.67500  0.82500  0.72500  Biso   1.000  Al
  Al5350   1.0000 0.67500  0.87500  0.70000  Biso   1.000  Al
  Al5351   1.0000 0.62500  0.82500  0.75000  Biso   1.000  Al
  Al5352   1.0000 0.62500  0.87500  0.77500  Biso   1.000  Al
  Al5353   1.0000 0.67500  0.82500  0.77500  Biso   1.000  Al
  Al5354   1.0000 0.67500  0.87500  0.75000  Biso   1.000  Al
  Al5355   1.0000 0.62500  0.82500  0.80000  Biso   1.000  Al
  Al5356   1.0000 0.62500  0.87500  0.82500  Biso   1.000  Al
  Al5357   1.0000 0.67500  0.82500  0.82500  Biso   1.000  Al
  Al5358   1.0000 0.67500  0.87500  0.80000  Biso   1.000  Al
  Al5359   1.0000 0.62500  0.82500  0.85000  Biso   1.000  Al
  Al5360   1.0000 0.62500  0.87500  0.87500  Biso   1.000  Al
  Al5361   1.0000 0.67500  0.82500  0.87500  Biso   1.000  Al
  Al5362   1.0000 0.67500  0.87500  0.85000  Biso   1.000  Al
  Al5363   1.0000 0.62500  0.82500  0.90000  Biso   1.000  Al
  Al5364   1.0000 0.62500  0.87500  0.92500  Biso   1.000  Al
  Al5365   1.0000 0.67500  0.82500  0.92500  Biso   1.000  Al
  Al5366   1.0000 0.67500  0.87500  0.90000  Biso   1.000  Al
  Al5367   1.0000 0.62500  0.82500  0.95000  Biso   1.000  Al
  Al5368   1.0000 0.62500  0.87500  0.97500  Biso   1.000  Al
  Al5369   1.0000 0.67500  0.82500  0.97500  Biso   1.000  Al
  Al5370   1.0000 0.67500  0.87500  0.95000  Biso   1.000  Al
  Al5371   1.0000 0.62500  0.92500  0.00000  Biso   1.000  Al
  Al5372   1.0000 0.62500  0.97500  0.02500  Biso   1.000  Al
  Al5373   1.0000 0.67500  0.92500  0.02500  Biso   1.000  Al
  Al5374   1.0000 0.67500  0.97500  0.00000  Biso   1.000  Al
  Al5375   1.0000 0.62500  0.92500  0.05000  Biso   1.000  Al
  Al5376   1.0000 0.62500  0.97500  0.07500  Biso   1.000  Al
  Al5377   1.0000 0.67500  0.92500  0.07500  Biso   1.000  Al
  Al5378   1.0000 0.67500  0.97500  0.05000  Biso   1.000  Al
  Al5379   1.0000 0.62500  0.92500  0.10000  Biso   1.000  Al
  Al5380   1.0000 0.62500  0.97500  0.12500  Biso   1.000  Al
  Al5381   1.0000 0.67500  0.92500  0.12500  Biso   1.000  Al
  Al5382   1.0000 0.67500  0.97500  0.10000  Biso   1.000  Al
  Al5383   1.0000 0.62500  0.92500  0.15000  Biso   1.000  Al
  Al5384   1.0000 0.62500  0.97500  0.17500  Biso   1.000  Al
  Al5385   1.0000 0.67500  0.92500  0.17500  Biso   1.000  Al
  Al5386   1.0000 0.67500  0.97500  0.15000  Biso   1.000  Al
  Al5387   1.0000 0.62500  0.92500  0.20000  Biso   1.000  Al
  Al5388   1.0000 0.62500  0.97500  0.22500  Biso   1.000  Al
  Al5389   1.0000 0.67500  0.92500  0.22500  Biso   1.000  Al
  Al5390   1.0000 0.67500  0.97500  0.20000  Biso   1.000  Al
  Al5391   1.0000 0.62500  0.92500  0.25000  Biso   1.000  Al
  Al5392   1.0000 0.62500  0.97500  0.27500  Biso   1.000  Al
  Al5393   1.0000 0.67500  0.92500  0.27500  Biso   1.000  Al
  Al5394   1.0000 0.67500  0.97500  0.25000  Biso   1.000  Al
  Al5395   1.0000 0.62500  0.92500  0.30000  Biso   1.000  Al
  Al5396   1.0000 0.62500  0.97500  0.32500  Biso   1.000  Al
  Al5397   1.0000 0.67500  0.92500  0.32500  Biso   1.000  Al
  Al5398   1.0000 0.67500  0.97500  0.30000  Biso   1.000  Al
  Al5399   1.0000 0.62500  0.92500  0.35000  Biso   1.000  Al
  Al5400   1.0000 0.62500  0.97500  0.37500  Biso   1.000  Al
  Al5401   1.0000 0.67500  0.92500  0.37500  Biso   1.000  Al
  Al5402   1.0000 0.67500  0.97500  0.35000  Biso   1.000  Al
  Al5403   1.0000 0.62500  0.92500  0.40000  Biso   1.000  Al
  Al5404   1.0000 0.62500  0.97500  0.42500  Biso   1.000  Al
  Al5405   1.0000 0.67500  0.92500  0.42500  Biso   1.000  Al
  Al5406   1.0000 0.67500  0.97500  0.40000  Biso   1.000  Al
  Al5407   1.0000 0.62500  0.92500  0.45000  Biso   1.000  Al
  Al5408   1.0000 0.62500  0.97500  0.47500  Biso   1.000  Al
  Al5409   1.0000 0.67500  0.92500  0.47500  Biso   1.000  Al
  Al5410   1.0000 0.67500  0.97500  0.45000  Biso   1.000  Al
  Al5411   1.0000 0.62500  0.92500  0.50000  Biso   1.000  Al
  Al5412   1.0000 0.62500  0.97500  0.52500  Biso   1.000  Al
  Al5413   1.0000 0.67500  0.92500  0.52500  Biso   1.000  Al
  Al5414   1.0000 0.67500  0.97500  0.50000  Biso   1.000  Al
  Al5415   1.0000 0.62500  0.92500  0.55000  Biso   1.000  Al
  Al5416   1.0000 0.62500  0.97500  0.57500  Biso   1.000  Al
  Al5417   1.0000 0.67500  0.92500  0.57500  Biso   1.000  Al
  Al5418   1.0000 0.67500  0.97500  0.55000  Biso   1.000  Al
  Al5419   1.0000 0.62500  0.92500  0.60000  Biso   1.000  Al
  Al5420   1.0000 0.62500  0.97500  0.62500  Biso   1.000  Al
  Al5421   1.0000 0.67500  0.92500  0.62500  Biso   1.000  Al
  Al5422   1.0000 0.67500  0.97500  0.60000  Biso   1.000  Al
  Al5423   1.0000 0.62500  0.92500  0.65000  Biso   1.000  Al
  Al5424   1.0000 0.62500  0.97500  0.67500  Biso   1.000  Al
  Al5425   1.0000 0.67500  0.92500  0.67500  Biso   1.000  Al
  Al5426   1.0000 0.67500  0.97500  0.65000  Biso   1.000  Al
  Al5427   1.0000 0.62500  0.92500  0.70000  Biso   1.000  Al
  Al5428   1.0000 0.62500  0.97500  0.72500  Biso   1.000  Al
  Al5429   1.0000 0.67500  0.92500  0.72500  Biso   1.000  Al
  Al5430   1.0000 0.67500  0.97500  0.70000  Biso   1.000  Al
  Al5431   1.0000 0.62500  0.92500  0.75000  Biso   1.000  Al
  Al5432   1.0000 0.62500  0.97500  0.77500  Biso   1.000  Al
  Al5433   1.0000 0.67500  0.92500  0.77500  Biso   1.000  Al
  Al5434   1.0000 0.67500  0.97500  0.75000  Biso   1.000  Al
  Al5435   1.0000 0.62500  0.92500  0.80000  Biso   1.000  Al
  Al5436   1.0000 0.62500  0.97500  0.82500  Biso   1.000  Al
  Al5437   1.0000 0.67500  0.92500  0.82500  Biso   1.000  Al
  Al5438   1.0000 0.67500  0.97500  0.80000  Biso   1.000  Al
  Al5439   1.0000 0.62500  0.92500  0.85000  Biso   1.000  Al
  Al5440   1.0000 0.62500  0.97500  0.87500  Biso   1.000  Al
  Al5441   1.0000 0.67500  0.92500  0.87500  Biso   1.000  Al
  Al5442   1.0000 0.67500  0.97500  0.85000  Biso   1.000  Al
  Al5443   1.0000 0.62500  0.92500  0.90000  Biso   1.000  Al
  Al5444   1.0000 0.62500  0.97500  0.92500  Biso   1.000  Al
  Al5445   1.0000 0.67500  0.92500  0.92500  Biso   1.000  Al
  Al5446   1.0000 0.67500  0.97500  0.90000  Biso   1.000  Al
  Al5447   1.0000 0.62500  0.92500  0.95000  Biso   1.000  Al
  Al5448   1.0000 0.62500  0.97500  0.97500  Biso   1.000  Al
  Al5449   1.0000 0.67500  0.92500  0.97500  Biso   1.000  Al
  Al5450   1.0000 0.67500  0.97500  0.95000  Biso   1.000  Al
  Al5451   1.0000 0.72500  0.02500  0.00000  Biso   1.000  Al
  Al5452   1.0000 0.72500  0.07500  0.02500  Biso   1.000  Al
  Al5453   1.0000 0.77500  0.02500  0.02500  Biso   1.000  Al
  Al5454   1.0000 0.77500  0.07500  0.00000  Biso   1.000  Al
  Al5455   1.0000 0.72500  0.02500  0.05000  Biso   1.000  Al
  Al5456   1.0000 0.72500  0.07500  0.07500  Biso   1.000  Al
  Al5457   1.0000 0.77500  0.02500  0.07500  Biso   1.000  Al
  Al5458   1.0000 0.77500  0.07500  0.05000  Biso   1.000  Al
  Al5459   1.0000 0.72500  0.02500  0.10000  Biso   1.000  Al
  Al5460   1.0000 0.72500  0.07500  0.12500  Biso   1.000  Al
  Al5461   1.0000 0.77500  0.02500  0.12500  Biso   1.000  Al
  Al5462   1.0000 0.77500  0.07500  0.10000  Biso   1.000  Al
  Al5463   1.0000 0.72500  0.02500  0.15000  Biso   1.000  Al
  Al5464   1.0000 0.72500  0.07500  0.17500  Biso   1.000  Al
  Al5465   1.0000 0.77500  0.02500  0.17500  Biso   1.000  Al
  Al5466   1.0000 0.77500  0.07500  0.15000  Biso   1.000  Al
  Al5467   1.0000 0.72500  0.02500  0.20000  Biso   1.000  Al
  Al5468   1.0000 0.72500  0.07500  0.22500  Biso   1.000  Al
  Al5469   1.0000 0.77500  0.02500  0.22500  Biso   1.000  Al
  Al5470   1.0000 0.77500  0.07500  0.20000  Biso   1.000  Al
  Al5471   1.0000 0.72500  0.02500  0.25000  Biso   1.000  Al
  Al5472   1.0000 0.72500  0.07500  0.27500  Biso   1.000  Al
  Al5473   1.0000 0.77500  0.02500  0.27500  Biso   1.000  Al
  Al5474   1.0000 0.77500  0.07500  0.25000  Biso   1.000  Al
  Al5475   1.0000 0.72500  0.02500  0.30000  Biso   1.000  Al
  Al5476   1.0000 0.72500  0.07500  0.32500  Biso   1.000  Al
  Al5477   1.0000 0.77500  0.02500  0.32500  Biso   1.000  Al
  Al5478   1.0000 0.77500  0.07500  0.30000  Biso   1.000  Al
  Al5479   1.0000 0.72500  0.02500  0.35000  Biso   1.000  Al
  Al5480   1.0000 0.72500  0.07500  0.37500  Biso   1.000  Al
  Al5481   1.0000 0.77500  0.02500  0.37500  Biso   1.000  Al
  Al5482   1.0000 0.77500  0.07500  0.35000  Biso   1.000  Al
  Al5483   1.0000 0.72500  0.02500  0.40000  Biso   1.000  Al
  Al5484   1.0000 0.72500  0.07500  0.42500  Biso   1.000  Al
  Al5485   1.0000 0.77500  0.02500  0.42500  Biso   1.000  Al
  Al5486   1.0000 0.77500  0.07500  0.40000  Biso   1.000  Al
  Al5487   1.0000 0.72500  0.02500  0.45000  Biso   1.000  Al
  Al5488   1.0000 0.72500  0.07500  0.47500  Biso   1.000  Al
  Al5489   1.0000 0.77500  0.02500  0.47500  Biso   1.000  Al
  Al5490   1.0000 0.77500  0.07500  0.45000  Biso   1.000  Al
  Al5491   1.0000 0.72500  0.02500  0.50000  Biso   1.000  Al
  Al5492   1.0000 0.72500  0.07500  0.52500  Biso   1.000  Al
  Al5493   1.0000 0.77500  0.02500  0.52500  Biso   1.000  Al
  Al5494   1.0000 0.77500  0.07500  0.50000  Biso   1.000  Al
  Al5495   1.0000 0.72500  0.02500  0.55000  Biso   1.000  Al
  Al5496   1.0000 0.72500  0.07500  0.57500  Biso   1.000  Al
  Al5497   1.0000 0.77500  0.02500  0.57500  Biso   1.000  Al
  Al5498   1.0000 0.77500  0.07500  0.55000  Biso   1.000  Al
  Al5499   1.0000 0.72500  0.02500  0.60000  Biso   1.000  Al
  Al5500   1.0000 0.72500  0.07500  0.62500  Biso   1.000  Al
  Al5501   1.0000 0.77500  0.02500  0.62500  Biso   1.000  Al
  Al5502   1.0000 0.77500  0.07500  0.60000  Biso   1.000  Al
  Al5503   1.0000 0.72500  0.02500  0.65000  Biso   1.000  Al
  Al5504   1.0000 0.72500  0.07500  0.67500  Biso   1.000  Al
  Al5505   1.0000 0.77500  0.02500  0.67500  Biso   1.000  Al
  Al5506   1.0000 0.77500  0.07500  0.65000  Biso   1.000  Al
  Al5507   1.0000 0.72500  0.02500  0.70000  Biso   1.000  Al
  Al5508   1.0000 0.72500  0.07500  0.72500  Biso   1.000  Al
  Al5509   1.0000 0.77500  0.02500  0.72500  Biso   1.000  Al
  Al5510   1.0000 0.77500  0.07500  0.70000  Biso   1.000  Al
  Al5511   1.0000 0.72500  0.02500  0.75000  Biso   1.000  Al
  Al5512   1.0000 0.72500  0.07500  0.77500  Biso   1.000  Al
  Al5513   1.0000 0.77500  0.02500  0.77500  Biso   1.000  Al
  Al5514   1.0000 0.77500  0.07500  0.75000  Biso   1.000  Al
  Al5515   1.0000 0.72500  0.02500  0.80000  Biso   1.000  Al
  Al5516   1.0000 0.72500  0.07500  0.82500  Biso   1.000  Al
  Al5517   1.0000 0.77500  0.02500  0.82500  Biso   1.000  Al
  Al5518   1.0000 0.77500  0.07500  0.80000  Biso   1.000  Al
  Al5519   1.0000 0.72500  0.02500  0.85000  Biso   1.000  Al
  Al5520   1.0000 0.72500  0.07500  0.87500  Biso   1.000  Al
  Al5521   1.0000 0.77500  0.02500  0.87500  Biso   1.000  Al
  Al5522   1.0000 0.77500  0.07500  0.85000  Biso   1.000  Al
  Al5523   1.0000 0.72500  0.02500  0.90000  Biso   1.000  Al
  Al5524   1.0000 0.72500  0.07500  0.92500  Biso   1.000  Al
  Al5525   1.0000 0.77500  0.02500  0.92500  Biso   1.000  Al
  Al5526   1.0000 0.77500  0.07500  0.90000  Biso   1.000  Al
  Al5527   1.0000 0.72500  0.02500  0.95000  Biso   1.000  Al
  Al5528   1.0000 0.72500  0.07500  0.97500  Biso   1.000  Al
  Al5529   1.0000 0.77500  0.02500  0.97500  Biso   1.000  Al
  Al5530   1.0000 0.77500  0.07500  0.95000  Biso   1.000  Al
  Al5531   1.0000 0.72500  0.12500  0.00000  Biso   1.000  Al
  Al5532   1.0000 0.72500  0.17500  0.02500  Biso   1.000  Al
  Al5533   1.0000 0.77500  0.12500  0.02500  Biso   1.000  Al
  Al5534   1.0000 0.77500  0.17500  0.00000  Biso   1.000  Al
  Al5535   1.0000 0.72500  0.12500  0.05000  Biso   1.000  Al
  Al5536   1.0000 0.72500  0.17500  0.07500  Biso   1.000  Al
  Al5537   1.0000 0.77500  0.12500  0.07500  Biso   1.000  Al
  Al5538   1.0000 0.77500  0.17500  0.05000  Biso   1.000  Al
  Al5539   1.0000 0.72500  0.12500  0.10000  Biso   1.000  Al
  Al5540   1.0000 0.72500  0.17500  0.12500  Biso   1.000  Al
  Al5541   1.0000 0.77500  0.12500  0.12500  Biso   1.000  Al
  Al5542   1.0000 0.77500  0.17500  0.10000  Biso   1.000  Al
  Al5543   1.0000 0.72500  0.12500  0.15000  Biso   1.000  Al
  Al5544   1.0000 0.72500  0.17500  0.17500  Biso   1.000  Al
  Al5545   1.0000 0.77500  0.12500  0.17500  Biso   1.000  Al
  Al5546   1.0000 0.77500  0.17500  0.15000  Biso   1.000  Al
  Al5547   1.0000 0.72500  0.12500  0.20000  Biso   1.000  Al
  Al5548   1.0000 0.72500  0.17500  0.22500  Biso   1.000  Al
  Al5549   1.0000 0.77500  0.12500  0.22500  Biso   1.000  Al
  Al5550   1.0000 0.77500  0.17500  0.20000  Biso   1.000  Al
  Al5551   1.0000 0.72500  0.12500  0.25000  Biso   1.000  Al
  Al5552   1.0000 0.72500  0.17500  0.27500  Biso   1.000  Al
  Al5553   1.0000 0.77500  0.12500  0.27500  Biso   1.000  Al
  Al5554   1.0000 0.77500  0.17500  0.25000  Biso   1.000  Al
  Al5555   1.0000 0.72500  0.12500  0.30000  Biso   1.000  Al
  Al5556   1.0000 0.72500  0.17500  0.32500  Biso   1.000  Al
  Al5557   1.0000 0.77500  0.12500  0.32500  Biso   1.000  Al
  Al5558   1.0000 0.77500  0.17500  0.30000  Biso   1.000  Al
  Al5559   1.0000 0.72500  0.12500  0.35000  Biso   1.000  Al
  Al5560   1.0000 0.72500  0.17500  0.37500  Biso   1.000  Al
  Al5561   1.0000 0.77500  0.12500  0.37500  Biso   1.000  Al
  Al5562   1.0000 0.77500  0.17500  0.35000  Biso   1.000  Al
  Al5563   1.0000 0.72500  0.12500  0.40000  Biso   1.000  Al
  Al5564   1.0000 0.72500  0.17500  0.42500  Biso   1.000  Al
  Al5565   1.0000 0.77500  0.12500  0.42500  Biso   1.000  Al
  Al5566   1.0000 0.77500  0.17500  0.40000  Biso   1.000  Al
  Al5567   1.0000 0.72500  0.12500  0.45000  Biso   1.000  Al
  Al5568   1.0000 0.72500  0.17500  0.47500  Biso   1.000  Al
  Al5569   1.0000 0.77500  0.12500  0.47500  Biso   1.000  Al
  Al5570   1.0000 0.77500  0.17500  0.45000  Biso   1.000  Al
  Al5571   1.0000 0.72500  0.12500  0.50000  Biso   1.000  Al
  Al5572   1.0000 0.72500  0.17500  0.52500  Biso   1.000  Al
  Al5573   1.0000 0.77500  0.12500  0.52500  Biso   1.000  Al
  Al5574   1.0000 0.77500  0.17500  0.50000  Biso   1.000  Al
  Al5575   1.0000 0.72500  0.12500  0.55000  Biso   1.000  Al
  Al5576   1.0000 0.72500  0.17500  0.57500  Biso   1.000  Al
  Al5577   1.0000 0.77500  0.12500  0.57500  Biso   1.000  Al
  Al5578   1.0000 0.77500  0.17500  0.55000  Biso   1.000  Al
  Al5579   1.0000 0.72500  0.12500  0.60000  Biso   1.000  Al
  Al5580   1.0000 0.72500  0.17500  0.62500  Biso   1.000  Al
  Al5581   1.0000 0.77500  0.12500  0.62500  Biso   1.000  Al
  Al5582   1.0000 0.77500  0.17500  0.60000  Biso   1.000  Al
  Al5583   1.0000 0.72500  0.12500  0.65000  Biso   1.000  Al
  Al5584   1.0000 0.72500  0.17500  0.67500  Biso   1.000  Al
  Al5585   1.0000 0.77500  0.12500  0.67500  Biso   1.000  Al
  Al5586   1.0000 0.77500  0.17500  0.65000  Biso   1.000  Al
  Al5587   1.0000 0.72500  0.12500  0.70000  Biso   1.000  Al
  Al5588   1.0000 0.72500  0.17500  0.72500  Biso   1.000  Al
  Al5589   1.0000 0.77500  0.12500  0.72500  Biso   1.000  Al
  Al5590   1.0000 0.77500  0.17500  0.70000  Biso   1.000  Al
  Al5591   1.0000 0.72500  0.12500  0.75000  Biso   1.000  Al
  Al5592   1.0000 0.72500  0.17500  0.77500  Biso   1.000  Al
  Al5593   1.0000 0.77500  0.12500  0.77500  Biso   1.000  Al
  Al5594   1.0000 0.77500  0.17500  0.75000  Biso   1.000  Al
  Al5595   1.0000 0.72500  0.12500  0.80000  Biso   1.000  Al
  Al5596   1.0000 0.72500  0.17500  0.82500  Biso   1.000  Al
  Al5597   1.0000 0.77500  0.12500  0.82500  Biso   1.000  Al
  Al5598   1.0000 0.77500  0.17500  0.80000  Biso   1.000  Al
  Al5599   1.0000 0.72500  0.12500  0.85000  Biso   1.000  Al
  Al5600   1.0000 0.72500  0.17500  0.87500  Biso   1.000  Al
  Al5601   1.0000 0.77500  0.12500  0.87500  Biso   1.000  Al
  Al5602   1.0000 0.77500  0.17500  0.85000  Biso   1.000  Al
  Al5603   1.0000 0.72500  0.12500  0.90000  Biso   1.000  Al
  Al5604   1.0000 0.72500  0.17500  0.92500  Biso   1.000  Al
  Al5605   1.0000 0.77500  0.12500  0.92500  Biso   1.000  Al
  Al5606   1.0000 0.77500  0.17500  0.90000  Biso   1.000  Al
  Al5607   1.0000 0.72500  0.12500  0.95000  Biso   1.000  Al
  Al5608   1.0000 0.72500  0.17500  0.97500  Biso   1.000  Al
  Al5609   1.0000 0.77500  0.12500  0.97500  Biso   1.000  Al
  Al5610   1.0000 0.77500  0.17500  0.95000  Biso   1.000  Al
  Al5611   1.0000 0.72500  0.22500  0.00000  Biso   1.000  Al
  Al5612   1.0000 0.72500  0.27500  0.02500  Biso   1.000  Al
  Al5613   1.0000 0.77500  0.22500  0.02500  Biso   1.000  Al
  Al5614   1.0000 0.77500  0.27500  0.00000  Biso   1.000  Al
  Al5615   1.0000 0.72500  0.22500  0.05000  Biso   1.000  Al
  Al5616   1.0000 0.72500  0.27500  0.07500  Biso   1.000  Al
  Al5617   1.0000 0.77500  0.22500  0.07500  Biso   1.000  Al
  Al5618   1.0000 0.77500  0.27500  0.05000  Biso   1.000  Al
  Al5619   1.0000 0.72500  0.22500  0.10000  Biso   1.000  Al
  Al5620   1.0000 0.72500  0.27500  0.12500  Biso   1.000  Al
  Al5621   1.0000 0.77500  0.22500  0.12500  Biso   1.000  Al
  Al5622   1.0000 0.77500  0.27500  0.10000  Biso   1.000  Al
  Al5623   1.0000 0.72500  0.22500  0.15000  Biso   1.000  Al
  Al5624   1.0000 0.72500  0.27500  0.17500  Biso   1.000  Al
  Al5625   1.0000 0.77500  0.22500  0.17500  Biso   1.000  Al
  Al5626   1.0000 0.77500  0.27500  0.15000  Biso   1.000  Al
  Al5627   1.0000 0.72500  0.22500  0.20000  Biso   1.000  Al
  Al5628   1.0000 0.72500  0.27500  0.22500  Biso   1.000  Al
  Al5629   1.0000 0.77500  0.22500  0.22500  Biso   1.000  Al
  Al5630   1.0000 0.77500  0.27500  0.20000  Biso   1.000  Al
  Al5631   1.0000 0.72500  0.22500  0.25000  Biso   1.000  Al
  Al5632   1.0000 0.72500  0.27500  0.27500  Biso   1.000  Al
  Al5633   1.0000 0.77500  0.22500  0.27500  Biso   1.000  Al
  Al5634   1.0000 0.77500  0.27500  0.25000  Biso   1.000  Al
  Al5635   1.0000 0.72500  0.22500  0.30000  Biso   1.000  Al
  Al5636   1.0000 0.72500  0.27500  0.32500  Biso   1.000  Al
  Al5637   1.0000 0.77500  0.22500  0.32500  Biso   1.000  Al
  Al5638   1.0000 0.77500  0.27500  0.30000  Biso   1.000  Al
  Al5639   1.0000 0.72500  0.22500  0.35000  Biso   1.000  Al
  Al5640   1.0000 0.72500  0.27500  0.37500  Biso   1.000  Al
  Al5641   1.0000 0.77500  0.22500  0.37500  Biso   1.000  Al
  Al5642   1.0000 0.77500  0.27500  0.35000  Biso   1.000  Al
  Al5643   1.0000 0.72500  0.22500  0.40000  Biso   1.000  Al
  Al5644   1.0000 0.72500  0.27500  0.42500  Biso   1.000  Al
  Al5645   1.0000 0.77500  0.22500  0.42500  Biso   1.000  Al
  Al5646   1.0000 0.77500  0.27500  0.40000  Biso   1.000  Al
  Al5647   1.0000 0.72500  0.22500  0.45000  Biso   1.000  Al
  Al5648   1.0000 0.72500  0.27500  0.47500  Biso   1.000  Al
  Al5649   1.0000 0.77500  0.22500  0.47500  Biso   1.000  Al
  Al5650   1.0000 0.77500  0.27500  0.45000  Biso   1.000  Al
  Al5651   1.0000 0.72500  0.22500  0.50000  Biso   1.000  Al
  Al5652   1.0000 0.72500  0.27500  0.52500  Biso   1.000  Al
  Al5653   1.0000 0.77500  0.22500  0.52500  Biso   1.000  Al
  Al5654   1.0000 0.77500  0.27500  0.50000  Biso   1.000  Al
  Al5655   1.0000 0.72500  0.22500  0.55000  Biso   1.000  Al
  Al5656   1.0000 0.72500  0.27500  0.57500  Biso   1.000  Al
  Al5657   1.0000 0.77500  0.22500  0.57500  Biso   1.000  Al
  Al5658   1.0000 0.77500  0.27500  0.55000  Biso   1.000  Al
  Al5659   1.0000 0.72500  0.22500  0.60000  Biso   1.000  Al
  Al5660   1.0000 0.72500  0.27500  0.62500  Biso   1.000  Al
  Al5661   1.0000 0.77500  0.22500  0.62500  Biso   1.000  Al
  Al5662   1.0000 0.77500  0.27500  0.60000  Biso   1.000  Al
  Al5663   1.0000 0.72500  0.22500  0.65000  Biso   1.000  Al
  Al5664   1.0000 0.72500  0.27500  0.67500  Biso   1.000  Al
  Al5665   1.0000 0.77500  0.22500  0.67500  Biso   1.000  Al
  Al5666   1.0000 0.77500  0.27500  0.65000  Biso   1.000  Al
  Al5667   1.0000 0.72500  0.22500  0.70000  Biso   1.000  Al
  Al5668   1.0000 0.72500  0.27500  0.72500  Biso   1.000  Al
  Al5669   1.0000 0.77500  0.22500  0.72500  Biso   1.000  Al
  Al5670   1.0000 0.77500  0.27500  0.70000  Biso   1.000  Al
  Al5671   1.0000 0.72500  0.22500  0.75000  Biso   1.000  Al
  Al5672   1.0000 0.72500  0.27500  0.77500  Biso   1.000  Al
  Al5673   1.0000 0.77500  0.22500  0.77500  Biso   1.000  Al
  Al5674   1.0000 0.77500  0.27500  0.75000  Biso   1.000  Al
  Al5675   1.0000 0.72500  0.22500  0.80000  Biso   1.000  Al
  Al5676   1.0000 0.72500  0.27500  0.82500  Biso   1.000  Al
  Al5677   1.0000 0.77500  0.22500  0.82500  Biso   1.000  Al
  Al5678   1.0000 0.77500  0.27500  0.80000  Biso   1.000  Al
  Al5679   1.0000 0.72500  0.22500  0.85000  Biso   1.000  Al
  Al5680   1.0000 0.72500  0.27500  0.87500  Biso   1.000  Al
  Al5681   1.0000 0.77500  0.22500  0.87500  Biso   1.000  Al
  Al5682   1.0000 0.77500  0.27500  0.85000  Biso   1.000  Al
  Al5683   1.0000 0.72500  0.22500  0.90000  Biso   1.000  Al
  Al5684   1.0000 0.72500  0.27500  0.92500  Biso   1.000  Al
  Al5685   1.0000 0.77500  0.22500  0.92500  Biso   1.000  Al
  Al5686   1.0000 0.77500  0.27500  0.90000  Biso   1.000  Al
  Al5687   1.0000 0.72500  0.22500  0.95000  Biso   1.000  Al
  Al5688   1.0000 0.72500  0.27500  0.97500  Biso   1.000  Al
  Al5689   1.0000 0.77500  0.22500  0.97500  Biso   1.000  Al
  Al5690   1.0000 0.77500  0.27500  0.95000  Biso   1.000  Al
  Al5691   1.0000 0.72500  0.32500  0.00000  Biso   1.000  Al
  Al5692   1.0000 0.72500  0.37500  0.02500  Biso   1.000  Al
  Al5693   1.0000 0.77500  0.32500  0.02500  Biso   1.000  Al
  Al5694   1.0000 0.77500  0.37500  0.00000  Biso   1.000  Al
  Al5695   1.0000 0.72500  0.32500  0.05000  Biso   1.000  Al
  Al5696   1.0000 0.72500  0.37500  0.07500  Biso   1.000  Al
  Al5697   1.0000 0.77500  0.32500  0.07500  Biso   1.000  Al
  Al5698   1.0000 0.77500  0.37500  0.05000  Biso   1.000  Al
  Al5699   1.0000 0.72500  0.32500  0.10000  Biso   1.000  Al
  Al5700   1.0000 0.72500  0.37500  0.12500  Biso   1.000  Al
  Al5701   1.0000 0.77500  0.32500  0.12500  Biso   1.000  Al
  Al5702   1.0000 0.77500  0.37500  0.10000  Biso   1.000  Al
  Al5703   1.0000 0.72500  0.32500  0.15000  Biso   1.000  Al
  Al5704   1.0000 0.72500  0.37500  0.17500  Biso   1.000  Al
  Al5705   1.0000 0.77500  0.32500  0.17500  Biso   1.000  Al
  Al5706   1.0000 0.77500  0.37500  0.15000  Biso   1.000  Al
  Al5707   1.0000 0.72500  0.32500  0.20000  Biso   1.000  Al
  Al5708   1.0000 0.72500  0.37500  0.22500  Biso   1.000  Al
  Al5709   1.0000 0.77500  0.32500  0.22500  Biso   1.000  Al
  Al5710   1.0000 0.77500  0.37500  0.20000  Biso   1.000  Al
  Al5711   1.0000 0.72500  0.32500  0.25000  Biso   1.000  Al
  Al5712   1.0000 0.72500  0.37500  0.27500  Biso   1.000  Al
  Al5713   1.0000 0.77500  0.32500  0.27500  Biso   1.000  Al
  Al5714   1.0000 0.77500  0.37500  0.25000  Biso   1.000  Al
  Al5715   1.0000 0.72500  0.32500  0.30000  Biso   1.000  Al
  Al5716   1.0000 0.72500  0.37500  0.32500  Biso   1.000  Al
  Al5717   1.0000 0.77500  0.32500  0.32500  Biso   1.000  Al
  Al5718   1.0000 0.77500  0.37500  0.30000  Biso   1.000  Al
  Al5719   1.0000 0.72500  0.32500  0.35000  Biso   1.000  Al
  Al5720   1.0000 0.72500  0.37500  0.37500  Biso   1.000  Al
  Al5721   1.0000 0.77500  0.32500  0.37500  Biso   1.000  Al
  Al5722   1.0000 0.77500  0.37500  0.35000  Biso   1.000  Al
  Al5723   1.0000 0.72500  0.32500  0.40000  Biso   1.000  Al
  Al5724   1.0000 0.72500  0.37500  0.42500  Biso   1.000  Al
  Al5725   1.0000 0.77500  0.32500  0.42500  Biso   1.000  Al
  Al5726   1.0000 0.77500  0.37500  0.40000  Biso   1.000  Al
  Al5727   1.0000 0.72500  0.32500  0.45000  Biso   1.000  Al
  Al5728   1.0000 0.72500  0.37500  0.47500  Biso   1.000  Al
  Al5729   1.0000 0.77500  0.32500  0.47500  Biso   1.000  Al
  Al5730   1.0000 0.77500  0.37500  0.45000  Biso   1.000  Al
  Al5731   1.0000 0.72500  0.32500  0.50000  Biso   1.000  Al
  Al5732   1.0000 0.72500  0.37500  0.52500  Biso   1.000  Al
  Al5733   1.0000 0.77500  0.32500  0.52500  Biso   1.000  Al
  Al5734   1.0000 0.77500  0.37500  0.50000  Biso   1.000  Al
  Al5735   1.0000 0.72500  0.32500  0.55000  Biso   1.000  Al
  Al5736   1.0000 0.72500  0.37500  0.57500  Biso   1.000  Al
  Al5737   1.0000 0.77500  0.32500  0.57500  Biso   1.000  Al
  Al5738   1.0000 0.77500  0.37500  0.55000  Biso   1.000  Al
  Al5739   1.0000 0.72500  0.32500  0.60000  Biso   1.000  Al
  Al5740   1.0000 0.72500  0.37500  0.62500  Biso   1.000  Al
  Al5741   1.0000 0.77500  0.32500  0.62500  Biso   1.000  Al
  Al5742   1.0000 0.77500  0.37500  0.60000  Biso   1.000  Al
  Al5743   1.0000 0.72500  0.32500  0.65000  Biso   1.000  Al
  Al5744   1.0000 0.72500  0.37500  0.67500  Biso   1.000  Al
  Al5745   1.0000 0.77500  0.32500  0.67500  Biso   1.000  Al
  Al5746   1.0000 0.77500  0.37500  0.65000  Biso   1.000  Al
  Al5747   1.0000 0.72500  0.32500  0.70000  Biso   1.000  Al
  Al5748   1.0000 0.72500  0.37500  0.72500  Biso   1.000  Al
  Al5749   1.0000 0.77500  0.32500  0.72500  Biso   1.000  Al
  Al5750   1.0000 0.77500  0.37500  0.70000  Biso   1.000  Al
  Al5751   1.0000 0.72500  0.32500  0.75000  Biso   1.000  Al
  Al5752   1.0000 0.72500  0.37500  0.77500  Biso   1.000  Al
  Al5753   1.0000 0.77500  0.32500  0.77500  Biso   1.000  Al
  Al5754   1.0000 0.77500  0.37500  0.75000  Biso   1.000  Al
  Al5755   1.0000 0.72500  0.32500  0.80000  Biso   1.000  Al
  Al5756   1.0000 0.72500  0.37500  0.82500  Biso   1.000  Al
  Al5757   1.0000 0.77500  0.32500  0.82500  Biso   1.000  Al
  Al5758   1.0000 0.77500  0.37500  0.80000  Biso   1.000  Al
  Al5759   1.0000 0.72500  0.32500  0.85000  Biso   1.000  Al
  Al5760   1.0000 0.72500  0.37500  0.87500  Biso   1.000  Al
  Al5761   1.0000 0.77500  0.32500  0.87500  Biso   1.000  Al
  Al5762   1.0000 0.77500  0.37500  0.85000  Biso   1.000  Al
  Al5763   1.0000 0.72500  0.32500  0.90000  Biso   1.000  Al
  Al5764   1.0000 0.72500  0.37500  0.92500  Biso   1.000  Al
  Al5765   1.0000 0.77500  0.32500  0.92500  Biso   1.000  Al
  Al5766   1.0000 0.77500  0.37500  0.90000  Biso   1.000  Al
  Al5767   1.0000 0.72500  0.32500  0.95000  Biso   1.000  Al
  Al5768   1.0000 0.72500  0.37500  0.97500  Biso   1.000  Al
  Al5769   1.0000 0.77500  0.32500  0.97500  Biso   1.000  Al
  Al5770   1.0000 0.77500  0.37500  0.95000  Biso   1.000  Al
  Al5771   1.0000 0.72500  0.42500  0.00000  Biso   1.000  Al
  Al5772   1.0000 0.72500  0.47500  0.02500  Biso   1.000  Al
  Al5773   1.0000 0.77500  0.42500  0.02500  Biso   1.000  Al
  Al5774   1.0000 0.77500  0.47500  0.00000  Biso   1.000  Al
  Al5775   1.0000 0.72500  0.42500  0.05000  Biso   1.000  Al
  Al5776   1.0000 0.72500  0.47500  0.07500  Biso   1.000  Al
  Al5777   1.0000 0.77500  0.42500  0.07500  Biso   1.000  Al
  Al5778   1.0000 0.77500  0.47500  0.05000  Biso   1.000  Al
  Al5779   1.0000 0.72500  0.42500  0.10000  Biso   1.000  Al
  Al5780   1.0000 0.72500  0.47500  0.12500  Biso   1.000  Al
  Al5781   1.0000 0.77500  0.42500  0.12500  Biso   1.000  Al
  Al5782   1.0000 0.77500  0.47500  0.10000  Biso   1.000  Al
  Al5783   1.0000 0.72500  0.42500  0.15000  Biso   1.000  Al
  Al5784   1.0000 0.72500  0.47500  0.17500  Biso   1.000  Al
  Al5785   1.0000 0.77500  0.42500  0.17500  Biso   1.000  Al
  Al5786   1.0000 0.77500  0.47500  0.15000  Biso   1.000  Al
  Al5787   1.0000 0.72500  0.42500  0.20000  Biso   1.000  Al
  Al5788   1.0000 0.72500  0.47500  0.22500  Biso   1.000  Al
  Al5789   1.0000 0.77500  0.42500  0.22500  Biso   1.000  Al
  Al5790   1.0000 0.77500  0.47500  0.20000  Biso   1.000  Al
  Al5791   1.0000 0.72500  0.42500  0.25000  Biso   1.000  Al
  Al5792   1.0000 0.72500  0.47500  0.27500  Biso   1.000  Al
  Al5793   1.0000 0.77500  0.42500  0.27500  Biso   1.000  Al
  Al5794   1.0000 0.77500  0.47500  0.25000  Biso   1.000  Al
  Al5795   1.0000 0.72500  0.42500  0.30000  Biso   1.000  Al
  Al5796   1.0000 0.72500  0.47500  0.32500  Biso   1.000  Al
  Al5797   1.0000 0.77500  0.42500  0.32500  Biso   1.000  Al
  Al5798   1.0000 0.77500  0.47500  0.30000  Biso   1.000  Al
  Al5799   1.0000 0.72500  0.42500  0.35000  Biso   1.000  Al
  Al5800   1.0000 0.72500  0.47500  0.37500  Biso   1.000  Al
  Al5801   1.0000 0.77500  0.42500  0.37500  Biso   1.000  Al
  Al5802   1.0000 0.77500  0.47500  0.35000  Biso   1.000  Al
  Al5803   1.0000 0.72500  0.42500  0.40000  Biso   1.000  Al
  Al5804   1.0000 0.72500  0.47500  0.42500  Biso   1.000  Al
  Al5805   1.0000 0.77500  0.42500  0.42500  Biso   1.000  Al
  Al5806   1.0000 0.77500  0.47500  0.40000  Biso   1.000  Al
  Al5807   1.0000 0.72500  0.42500  0.45000  Biso   1.000  Al
  Al5808   1.0000 0.72500  0.47500  0.47500  Biso   1.000  Al
  Al5809   1.0000 0.77500  0.42500  0.47500  Biso   1.000  Al
  Al5810   1.0000 0.77500  0.47500  0.45000  Biso   1.000  Al
  Al5811   1.0000 0.72500  0.42500  0.50000  Biso   1.000  Al
  Al5812   1.0000 0.72500  0.47500  0.52500  Biso   1.000  Al
  Al5813   1.0000 0.77500  0.42500  0.52500  Biso   1.000  Al
  Al5814   1.0000 0.77500  0.47500  0.50000  Biso   1.000  Al
  Al5815   1.0000 0.72500  0.42500  0.55000  Biso   1.000  Al
  Al5816   1.0000 0.72500  0.47500  0.57500  Biso   1.000  Al
  Al5817   1.0000 0.77500  0.42500  0.57500  Biso   1.000  Al
  Al5818   1.0000 0.77500  0.47500  0.55000  Biso   1.000  Al
  Al5819   1.0000 0.72500  0.42500  0.60000  Biso   1.000  Al
  Al5820   1.0000 0.72500  0.47500  0.62500  Biso   1.000  Al
  Al5821   1.0000 0.77500  0.42500  0.62500  Biso   1.000  Al
  Al5822   1.0000 0.77500  0.47500  0.60000  Biso   1.000  Al
  Al5823   1.0000 0.72500  0.42500  0.65000  Biso   1.000  Al
  Al5824   1.0000 0.72500  0.47500  0.67500  Biso   1.000  Al
  Al5825   1.0000 0.77500  0.42500  0.67500  Biso   1.000  Al
  Al5826   1.0000 0.77500  0.47500  0.65000  Biso   1.000  Al
  Al5827   1.0000 0.72500  0.42500  0.70000  Biso   1.000  Al
  Al5828   1.0000 0.72500  0.47500  0.72500  Biso   1.000  Al
  Al5829   1.0000 0.77500  0.42500  0.72500  Biso   1.000  Al
  Al5830   1.0000 0.77500  0.47500  0.70000  Biso   1.000  Al
  Al5831   1.0000 0.72500  0.42500  0.75000  Biso   1.000  Al
  Al5832   1.0000 0.72500  0.47500  0.77500  Biso   1.000  Al
  Al5833   1.0000 0.77500  0.42500  0.77500  Biso   1.000  Al
  Al5834   1.0000 0.77500  0.47500  0.75000  Biso   1.000  Al
  Al5835   1.0000 0.72500  0.42500  0.80000  Biso   1.000  Al
  Al5836   1.0000 0.72500  0.47500  0.82500  Biso   1.000  Al
  Al5837   1.0000 0.77500  0.42500  0.82500  Biso   1.000  Al
  Al5838   1.0000 0.77500  0.47500  0.80000  Biso   1.000  Al
  Al5839   1.0000 0.72500  0.42500  0.85000  Biso   1.000  Al
  Al5840   1.0000 0.72500  0.47500  0.87500  Biso   1.000  Al
  Al5841   1.0000 0.77500  0.42500  0.87500  Biso   1.000  Al
  Al5842   1.0000 0.77500  0.47500  0.85000  Biso   1.000  Al
  Al5843   1.0000 0.72500  0.42500  0.90000  Biso   1.000  Al
  Al5844   1.0000 0.72500  0.47500  0.92500  Biso   1.000  Al
  Al5845   1.0000 0.77500  0.42500  0.92500  Biso   1.000  Al
  Al5846   1.0000 0.77500  0.47500  0.90000  Biso   1.000  Al
  Al5847   1.0000 0.72500  0.42500  0.95000  Biso   1.000  Al
  Al5848   1.0000 0.72500  0.47500  0.97500  Biso   1.000  Al
  Al5849   1.0000 0.77500  0.42500  0.97500  Biso   1.000  Al
  Al5850   1.0000 0.77500  0.47500  0.95000  Biso   1.000  Al
  Al5851   1.0000 0.72500  0.52500  0.00000  Biso   1.000  Al
  Al5852   1.0000 0.72500  0.57500  0.02500  Biso   1.000  Al
  Al5853   1.0000 0.77500  0.52500  0.02500  Biso   1.000  Al
  Al5854   1.0000 0.77500  0.57500  0.00000  Biso   1.000  Al
  Al5855   1.0000 0.72500  0.52500  0.05000  Biso   1.000  Al
  Al5856   1.0000 0.72500  0.57500  0.07500  Biso   1.000  Al
  Al5857   1.0000 0.77500  0.52500  0.07500  Biso   1.000  Al
  Al5858   1.0000 0.77500  0.57500  0.05000  Biso   1.000  Al
  Al5859   1.0000 0.72500  0.52500  0.10000  Biso   1.000  Al
  Al5860   1.0000 0.72500  0.57500  0.12500  Biso   1.000  Al
  Al5861   1.0000 0.77500  0.52500  0.12500  Biso   1.000  Al
  Al5862   1.0000 0.77500  0.57500  0.10000  Biso   1.000  Al
  Al5863   1.0000 0.72500  0.52500  0.15000  Biso   1.000  Al
  Al5864   1.0000 0.72500  0.57500  0.17500  Biso   1.000  Al
  Al5865   1.0000 0.77500  0.52500  0.17500  Biso   1.000  Al
  Al5866   1.0000 0.77500  0.57500  0.15000  Biso   1.000  Al
  Al5867   1.0000 0.72500  0.52500  0.20000  Biso   1.000  Al
  Al5868   1.0000 0.72500  0.57500  0.22500  Biso   1.000  Al
  Al5869   1.0000 0.77500  0.52500  0.22500  Biso   1.000  Al
  Al5870   1.0000 0.77500  0.57500  0.20000  Biso   1.000  Al
  Al5871   1.0000 0.72500  0.52500  0.25000  Biso   1.000  Al
  Al5872   1.0000 0.72500  0.57500  0.27500  Biso   1.000  Al
  Al5873   1.0000 0.77500  0.52500  0.27500  Biso   1.000  Al
  Al5874   1.0000 0.77500  0.57500  0.25000  Biso   1.000  Al
  Al5875   1.0000 0.72500  0.52500  0.30000  Biso   1.000  Al
  Al5876   1.0000 0.72500  0.57500  0.32500  Biso   1.000  Al
  Al5877   1.0000 0.77500  0.52500  0.32500  Biso   1.000  Al
  Al5878   1.0000 0.77500  0.57500  0.30000  Biso   1.000  Al
  Al5879   1.0000 0.72500  0.52500  0.35000  Biso   1.000  Al
  Al5880   1.0000 0.72500  0.57500  0.37500  Biso   1.000  Al
  Al5881   1.0000 0.77500  0.52500  0.37500  Biso   1.000  Al
  Al5882   1.0000 0.77500  0.57500  0.35000  Biso   1.000  Al
  Al5883   1.0000 0.72500  0.52500  0.40000  Biso   1.000  Al
  Al5884   1.0000 0.72500  0.57500  0.42500  Biso   1.000  Al
  Al5885   1.0000 0.77500  0.52500  0.42500  Biso   1.000  Al
  Al5886   1.0000 0.77500  0.57500  0.40000  Biso   1.000  Al
  Al5887   1.0000 0.72500  0.52500  0.45000  Biso   1.000  Al
  Al5888   1.0000 0.72500  0.57500  0.47500  Biso   1.000  Al
  Al5889   1.0000 0.77500  0.52500  0.47500  Biso   1.000  Al
  Al5890   1.0000 0.77500  0.57500  0.45000  Biso   1.000  Al
  Al5891   1.0000 0.72500  0.52500  0.50000  Biso   1.000  Al
  Al5892   1.0000 0.72500  0.57500  0.52500  Biso   1.000  Al
  Al5893   1.0000 0.77500  0.52500  0.52500  Biso   1.000  Al
  Al5894   1.0000 0.77500  0.57500  0.50000  Biso   1.000  Al
  Al5895   1.0000 0.72500  0.52500  0.55000  Biso   1.000  Al
  Al5896   1.0000 0.72500  0.57500  0.57500  Biso   1.000  Al
  Al5897   1.0000 0.77500  0.52500  0.57500  Biso   1.000  Al
  Al5898   1.0000 0.77500  0.57500  0.55000  Biso   1.000  Al
  Al5899   1.0000 0.72500  0.52500  0.60000  Biso   1.000  Al
  Al5900   1.0000 0.72500  0.57500  0.62500  Biso   1.000  Al
  Al5901   1.0000 0.77500  0.52500  0.62500  Biso   1.000  Al
  Al5902   1.0000 0.77500  0.57500  0.60000  Biso   1.000  Al
  Al5903   1.0000 0.72500  0.52500  0.65000  Biso   1.000  Al
  Al5904   1.0000 0.72500  0.57500  0.67500  Biso   1.000  Al
  Al5905   1.0000 0.77500  0.52500  0.67500  Biso   1.000  Al
  Al5906   1.0000 0.77500  0.57500  0.65000  Biso   1.000  Al
  Al5907   1.0000 0.72500  0.52500  0.70000  Biso   1.000  Al
  Al5908   1.0000 0.72500  0.57500  0.72500  Biso   1.000  Al
  Al5909   1.0000 0.77500  0.52500  0.72500  Biso   1.000  Al
  Al5910   1.0000 0.77500  0.57500  0.70000  Biso   1.000  Al
  Al5911   1.0000 0.72500  0.52500  0.75000  Biso   1.000  Al
  Al5912   1.0000 0.72500  0.57500  0.77500  Biso   1.000  Al
  Al5913   1.0000 0.77500  0.52500  0.77500  Biso   1.000  Al
  Al5914   1.0000 0.77500  0.57500  0.75000  Biso   1.000  Al
  Al5915   1.0000 0.72500  0.52500  0.80000  Biso   1.000  Al
  Al5916   1.0000 0.72500  0.57500  0.82500  Biso   1.000  Al
  Al5917   1.0000 0.77500  0.52500  0.82500  Biso   1.000  Al
  Al5918   1.0000 0.77500  0.57500  0.80000  Biso   1.000  Al
  Al5919   1.0000 0.72500  0.52500  0.85000  Biso   1.000  Al
  Al5920   1.0000 0.72500  0.57500  0.87500  Biso   1.000  Al
  Al5921   1.0000 0.77500  0.52500  0.87500  Biso   1.000  Al
  Al5922   1.0000 0.77500  0.57500  0.85000  Biso   1.000  Al
  Al5923   1.0000 0.72500  0.52500  0.90000  Biso   1.000  Al
  Al5924   1.0000 0.72500  0.57500  0.92500  Biso   1.000  Al
  Al5925   1.0000 0.77500  0.52500  0.92500  Biso   1.000  Al
  Al5926   1.0000 0.77500  0.57500  0.90000  Biso   1.000  Al
  Al5927   1.0000 0.72500  0.52500  0.95000  Biso   1.000  Al
  Al5928   1.0000 0.72500  0.57500  0.97500  Biso   1.000  Al
  Al5929   1.0000 0.77500  0.52500  0.97500  Biso   1.000  Al
  Al5930   1.0000 0.77500  0.57500  0.95000  Biso   1.000  Al
  Al5931   1.0000 0.72500  0.62500  0.00000  Biso   1.000  Al
  Al5932   1.0000 0.72500  0.67500  0.02500  Biso   1.000  Al
  Al5933   1.0000 0.77500  0.62500  0.02500  Biso   1.000  Al
  Al5934   1.0000 0.77500  0.67500  0.00000  Biso   1.000  Al
  Al5935   1.0000 0.72500  0.62500  0.05000  Biso   1.000  Al
  Al5936   1.0000 0.72500  0.67500  0.07500  Biso   1.000  Al
  Al5937   1.0000 0.77500  0.62500  0.07500  Biso   1.000  Al
  Al5938   1.0000 0.77500  0.67500  0.05000  Biso   1.000  Al
  Al5939   1.0000 0.72500  0.62500  0.10000  Biso   1.000  Al
  Al5940   1.0000 0.72500  0.67500  0.12500  Biso   1.000  Al
  Al5941   1.0000 0.77500  0.62500  0.12500  Biso   1.000  Al
  Al5942   1.0000 0.77500  0.67500  0.10000  Biso   1.000  Al
  Al5943   1.0000 0.72500  0.62500  0.15000  Biso   1.000  Al
  Al5944   1.0000 0.72500  0.67500  0.17500  Biso   1.000  Al
  Al5945   1.0000 0.77500  0.62500  0.17500  Biso   1.000  Al
  Al5946   1.0000 0.77500  0.67500  0.15000  Biso   1.000  Al
  Al5947   1.0000 0.72500  0.62500  0.20000  Biso   1.000  Al
  Al5948   1.0000 0.72500  0.67500  0.22500  Biso   1.000  Al
  Al5949   1.0000 0.77500  0.62500  0.22500  Biso   1.000  Al
  Al5950   1.0000 0.77500  0.67500  0.20000  Biso   1.000  Al
  Al5951   1.0000 0.72500  0.62500  0.25000  Biso   1.000  Al
  Al5952   1.0000 0.72500  0.67500  0.27500  Biso   1.000  Al
  Al5953   1.0000 0.77500  0.62500  0.27500  Biso   1.000  Al
  Al5954   1.0000 0.77500  0.67500  0.25000  Biso   1.000  Al
  Al5955   1.0000 0.72500  0.62500  0.30000  Biso   1.000  Al
  Al5956   1.0000 0.72500  0.67500  0.32500  Biso   1.000  Al
  Al5957   1.0000 0.77500  0.62500  0.32500  Biso   1.000  Al
  Al5958   1.0000 0.77500  0.67500  0.30000  Biso   1.000  Al
  Al5959   1.0000 0.72500  0.62500  0.35000  Biso   1.000  Al
  Al5960   1.0000 0.72500  0.67500  0.37500  Biso   1.000  Al
  Al5961   1.0000 0.77500  0.62500  0.37500  Biso   1.000  Al
  Al5962   1.0000 0.77500  0.67500  0.35000  Biso   1.000  Al
  Al5963   1.0000 0.72500  0.62500  0.40000  Biso   1.000  Al
  Al5964   1.0000 0.72500  0.67500  0.42500  Biso   1.000  Al
  Al5965   1.0000 0.77500  0.62500  0.42500  Biso   1.000  Al
  Al5966   1.0000 0.77500  0.67500  0.40000  Biso   1.000  Al
  Al5967   1.0000 0.72500  0.62500  0.45000  Biso   1.000  Al
  Al5968   1.0000 0.72500  0.67500  0.47500  Biso   1.000  Al
  Al5969   1.0000 0.77500  0.62500  0.47500  Biso   1.000  Al
  Al5970   1.0000 0.77500  0.67500  0.45000  Biso   1.000  Al
  Al5971   1.0000 0.72500  0.62500  0.50000  Biso   1.000  Al
  Al5972   1.0000 0.72500  0.67500  0.52500  Biso   1.000  Al
  Al5973   1.0000 0.77500  0.62500  0.52500  Biso   1.000  Al
  Al5974   1.0000 0.77500  0.67500  0.50000  Biso   1.000  Al
  Al5975   1.0000 0.72500  0.62500  0.55000  Biso   1.000  Al
  Al5976   1.0000 0.72500  0.67500  0.57500  Biso   1.000  Al
  Al5977   1.0000 0.77500  0.62500  0.57500  Biso   1.000  Al
  Al5978   1.0000 0.77500  0.67500  0.55000  Biso   1.000  Al
  Al5979   1.0000 0.72500  0.62500  0.60000  Biso   1.000  Al
  Al5980   1.0000 0.72500  0.67500  0.62500  Biso   1.000  Al
  Al5981   1.0000 0.77500  0.62500  0.62500  Biso   1.000  Al
  Al5982   1.0000 0.77500  0.67500  0.60000  Biso   1.000  Al
  Al5983   1.0000 0.72500  0.62500  0.65000  Biso   1.000  Al
  Al5984   1.0000 0.72500  0.67500  0.67500  Biso   1.000  Al
  Al5985   1.0000 0.77500  0.62500  0.67500  Biso   1.000  Al
  Al5986   1.0000 0.77500  0.67500  0.65000  Biso   1.000  Al
  Al5987   1.0000 0.72500  0.62500  0.70000  Biso   1.000  Al
  Al5988   1.0000 0.72500  0.67500  0.72500  Biso   1.000  Al
  Al5989   1.0000 0.77500  0.62500  0.72500  Biso   1.000  Al
  Al5990   1.0000 0.77500  0.67500  0.70000  Biso   1.000  Al
  Al5991   1.0000 0.72500  0.62500  0.75000  Biso   1.000  Al
  Al5992   1.0000 0.72500  0.67500  0.77500  Biso   1.000  Al
  Al5993   1.0000 0.77500  0.62500  0.77500  Biso   1.000  Al
  Al5994   1.0000 0.77500  0.67500  0.75000  Biso   1.000  Al
  Al5995   1.0000 0.72500  0.62500  0.80000  Biso   1.000  Al
  Al5996   1.0000 0.72500  0.67500  0.82500  Biso   1.000  Al
  Al5997   1.0000 0.77500  0.62500  0.82500  Biso   1.000  Al
  Al5998   1.0000 0.77500  0.67500  0.80000  Biso   1.000  Al
  Al5999   1.0000 0.72500  0.62500  0.85000  Biso   1.000  Al
  Al6000   1.0000 0.72500  0.67500  0.87500  Biso   1.000  Al
  Al6001   1.0000 0.77500  0.62500  0.87500  Biso   1.000  Al
  Al6002   1.0000 0.77500  0.67500  0.85000  Biso   1.000  Al
  Al6003   1.0000 0.72500  0.62500  0.90000  Biso   1.000  Al
  Al6004   1.0000 0.72500  0.67500  0.92500  Biso   1.000  Al
  Al6005   1.0000 0.77500  0.62500  0.92500  Biso   1.000  Al
  Al6006   1.0000 0.77500  0.67500  0.90000  Biso   1.000  Al
  Al6007   1.0000 0.72500  0.62500  0.95000  Biso   1.000  Al
  Al6008   1.0000 0.72500  0.67500  0.97500  Biso   1.000  Al
  Al6009   1.0000 0.77500  0.62500  0.97500  Biso   1.000  Al
  Al6010   1.0000 0.77500  0.67500  0.95000  Biso   1.000  Al
  Al6011   1.0000 0.72500  0.72500  0.00000  Biso   1.000  Al
  Al6012   1.0000 0.72500  0.77500  0.02500  Biso   1.000  Al
  Al6013   1.0000 0.77500  0.72500  0.02500  Biso   1.000  Al
  Al6014   1.0000 0.77500  0.77500  0.00000  Biso   1.000  Al
  Al6015   1.0000 0.72500  0.72500  0.05000  Biso   1.000  Al
  Al6016   1.0000 0.72500  0.77500  0.07500  Biso   1.000  Al
  Al6017   1.0000 0.77500  0.72500  0.07500  Biso   1.000  Al
  Al6018   1.0000 0.77500  0.77500  0.05000  Biso   1.000  Al
  Al6019   1.0000 0.72500  0.72500  0.10000  Biso   1.000  Al
  Al6020   1.0000 0.72500  0.77500  0.12500  Biso   1.000  Al
  Al6021   1.0000 0.77500  0.72500  0.12500  Biso   1.000  Al
  Al6022   1.0000 0.77500  0.77500  0.10000  Biso   1.000  Al
  Al6023   1.0000 0.72500  0.72500  0.15000  Biso   1.000  Al
  Al6024   1.0000 0.72500  0.77500  0.17500  Biso   1.000  Al
  Al6025   1.0000 0.77500  0.72500  0.17500  Biso   1.000  Al
  Al6026   1.0000 0.77500  0.77500  0.15000  Biso   1.000  Al
  Al6027   1.0000 0.72500  0.72500  0.20000  Biso   1.000  Al
  Al6028   1.0000 0.72500  0.77500  0.22500  Biso   1.000  Al
  Al6029   1.0000 0.77500  0.72500  0.22500  Biso   1.000  Al
  Al6030   1.0000 0.77500  0.77500  0.20000  Biso   1.000  Al
  Al6031   1.0000 0.72500  0.72500  0.25000  Biso   1.000  Al
  Al6032   1.0000 0.72500  0.77500  0.27500  Biso   1.000  Al
  Al6033   1.0000 0.77500  0.72500  0.27500  Biso   1.000  Al
  Al6034   1.0000 0.77500  0.77500  0.25000  Biso   1.000  Al
  Al6035   1.0000 0.72500  0.72500  0.30000  Biso   1.000  Al
  Al6036   1.0000 0.72500  0.77500  0.32500  Biso   1.000  Al
  Al6037   1.0000 0.77500  0.72500  0.32500  Biso   1.000  Al
  Al6038   1.0000 0.77500  0.77500  0.30000  Biso   1.000  Al
  Al6039   1.0000 0.72500  0.72500  0.35000  Biso   1.000  Al
  Al6040   1.0000 0.72500  0.77500  0.37500  Biso   1.000  Al
  Al6041   1.0000 0.77500  0.72500  0.37500  Biso   1.000  Al
  Al6042   1.0000 0.77500  0.77500  0.35000  Biso   1.000  Al
  Al6043   1.0000 0.72500  0.72500  0.40000  Biso   1.000  Al
  Al6044   1.0000 0.72500  0.77500  0.42500  Biso   1.000  Al
  Al6045   1.0000 0.77500  0.72500  0.42500  Biso   1.000  Al
  Al6046   1.0000 0.77500  0.77500  0.40000  Biso   1.000  Al
  Al6047   1.0000 0.72500  0.72500  0.45000  Biso   1.000  Al
  Al6048   1.0000 0.72500  0.77500  0.47500  Biso   1.000  Al
  Al6049   1.0000 0.77500  0.72500  0.47500  Biso   1.000  Al
  Al6050   1.0000 0.77500  0.77500  0.45000  Biso   1.000  Al
  Al6051   1.0000 0.72500  0.72500  0.50000  Biso   1.000  Al
  Al6052   1.0000 0.72500  0.77500  0.52500  Biso   1.000  Al
  Al6053   1.0000 0.77500  0.72500  0.52500  Biso   1.000  Al
  Al6054   1.0000 0.77500  0.77500  0.50000  Biso   1.000  Al
  Al6055   1.0000 0.72500  0.72500  0.55000  Biso   1.000  Al
  Al6056   1.0000 0.72500  0.77500  0.57500  Biso   1.000  Al
  Al6057   1.0000 0.77500  0.72500  0.57500  Biso   1.000  Al
  Al6058   1.0000 0.77500  0.77500  0.55000  Biso   1.000  Al
  Al6059   1.0000 0.72500  0.72500  0.60000  Biso   1.000  Al
  Al6060   1.0000 0.72500  0.77500  0.62500  Biso   1.000  Al
  Al6061   1.0000 0.77500  0.72500  0.62500  Biso   1.000  Al
  Al6062   1.0000 0.77500  0.77500  0.60000  Biso   1.000  Al
  Al6063   1.0000 0.72500  0.72500  0.65000  Biso   1.000  Al
  Al6064   1.0000 0.72500  0.77500  0.67500  Biso   1.000  Al
  Al6065   1.0000 0.77500  0.72500  0.67500  Biso   1.000  Al
  Al6066   1.0000 0.77500  0.77500  0.65000  Biso   1.000  Al
  Al6067   1.0000 0.72500  0.72500  0.70000  Biso   1.000  Al
  Al6068   1.0000 0.72500  0.77500  0.72500  Biso   1.000  Al
  Al6069   1.0000 0.77500  0.72500  0.72500  Biso   1.000  Al
  Al6070   1.0000 0.77500  0.77500  0.70000  Biso   1.000  Al
  Al6071   1.0000 0.72500  0.72500  0.75000  Biso   1.000  Al
  Al6072   1.0000 0.72500  0.77500  0.77500  Biso   1.000  Al
  Al6073   1.0000 0.77500  0.72500  0.77500  Biso   1.000  Al
  Al6074   1.0000 0.77500  0.77500  0.75000  Biso   1.000  Al
  Al6075   1.0000 0.72500  0.72500  0.80000  Biso   1.000  Al
  Al6076   1.0000 0.72500  0.77500  0.82500  Biso   1.000  Al
  Al6077   1.0000 0.77500  0.72500  0.82500  Biso   1.000  Al
  Al6078   1.0000 0.77500  0.77500  0.80000  Biso   1.000  Al
  Al6079   1.0000 0.72500  0.72500  0.85000  Biso   1.000  Al
  Al6080   1.0000 0.72500  0.77500  0.87500  Biso   1.000  Al
  Al6081   1.0000 0.77500  0.72500  0.87500  Biso   1.000  Al
  Al6082   1.0000 0.77500  0.77500  0.85000  Biso   1.000  Al
  Al6083   1.0000 0.72500  0.72500  0.90000  Biso   1.000  Al
  Al6084   1.0000 0.72500  0.77500  0.92500  Biso   1.000  Al
  Al6085   1.0000 0.77500  0.72500  0.92500  Biso   1.000  Al
  Al6086   1.0000 0.77500  0.77500  0.90000  Biso   1.000  Al
  Al6087   1.0000 0.72500  0.72500  0.95000  Biso   1.000  Al
  Al6088   1.0000 0.72500  0.77500  0.97500  Biso   1.000  Al
  Al6089   1.0000 0.77500  0.72500  0.97500  Biso   1.000  Al
  Al6090   1.0000 0.77500  0.77500  0.95000  Biso   1.000  Al
  Al6091   1.0000 0.72500  0.82500  0.00000  Biso   1.000  Al
  Al6092   1.0000 0.72500  0.87500  0.02500  Biso   1.000  Al
  Al6093   1.0000 0.77500  0.82500  0.02500  Biso   1.000  Al
  Al6094   1.0000 0.77500  0.87500  0.00000  Biso   1.000  Al
  Al6095   1.0000 0.72500  0.82500  0.05000  Biso   1.000  Al
  Al6096   1.0000 0.72500  0.87500  0.07500  Biso   1.000  Al
  Al6097   1.0000 0.77500  0.82500  0.07500  Biso   1.000  Al
  Al6098   1.0000 0.77500  0.87500  0.05000  Biso   1.000  Al
  Al6099   1.0000 0.72500  0.82500  0.10000  Biso   1.000  Al
  Al6100   1.0000 0.72500  0.87500  0.12500  Biso   1.000  Al
  Al6101   1.0000 0.77500  0.82500  0.12500  Biso   1.000  Al
  Al6102   1.0000 0.77500  0.87500  0.10000  Biso   1.000  Al
  Al6103   1.0000 0.72500  0.82500  0.15000  Biso   1.000  Al
  Al6104   1.0000 0.72500  0.87500  0.17500  Biso   1.000  Al
  Al6105   1.0000 0.77500  0.82500  0.17500  Biso   1.000  Al
  Al6106   1.0000 0.77500  0.87500  0.15000  Biso   1.000  Al
  Al6107   1.0000 0.72500  0.82500  0.20000  Biso   1.000  Al
  Al6108   1.0000 0.72500  0.87500  0.22500  Biso   1.000  Al
  Al6109   1.0000 0.77500  0.82500  0.22500  Biso   1.000  Al
  Al6110   1.0000 0.77500  0.87500  0.20000  Biso   1.000  Al
  Al6111   1.0000 0.72500  0.82500  0.25000  Biso   1.000  Al
  Al6112   1.0000 0.72500  0.87500  0.27500  Biso   1.000  Al
  Al6113   1.0000 0.77500  0.82500  0.27500  Biso   1.000  Al
  Al6114   1.0000 0.77500  0.87500  0.25000  Biso   1.000  Al
  Al6115   1.0000 0.72500  0.82500  0.30000  Biso   1.000  Al
  Al6116   1.0000 0.72500  0.87500  0.32500  Biso   1.000  Al
  Al6117   1.0000 0.77500  0.82500  0.32500  Biso   1.000  Al
  Al6118   1.0000 0.77500  0.87500  0.30000  Biso   1.000  Al
  Al6119   1.0000 0.72500  0.82500  0.35000  Biso   1.000  Al
  Al6120   1.0000 0.72500  0.87500  0.37500  Biso   1.000  Al
  Al6121   1.0000 0.77500  0.82500  0.37500  Biso   1.000  Al
  Al6122   1.0000 0.77500  0.87500  0.35000  Biso   1.000  Al
  Al6123   1.0000 0.72500  0.82500  0.40000  Biso   1.000  Al
  Al6124   1.0000 0.72500  0.87500  0.42500  Biso   1.000  Al
  Al6125   1.0000 0.77500  0.82500  0.42500  Biso   1.000  Al
  Al6126   1.0000 0.77500  0.87500  0.40000  Biso   1.000  Al
  Al6127   1.0000 0.72500  0.82500  0.45000  Biso   1.000  Al
  Al6128   1.0000 0.72500  0.87500  0.47500  Biso   1.000  Al
  Al6129   1.0000 0.77500  0.82500  0.47500  Biso   1.000  Al
  Al6130   1.0000 0.77500  0.87500  0.45000  Biso   1.000  Al
  Al6131   1.0000 0.72500  0.82500  0.50000  Biso   1.000  Al
  Al6132   1.0000 0.72500  0.87500  0.52500  Biso   1.000  Al
  Al6133   1.0000 0.77500  0.82500  0.52500  Biso   1.000  Al
  Al6134   1.0000 0.77500  0.87500  0.50000  Biso   1.000  Al
  Al6135   1.0000 0.72500  0.82500  0.55000  Biso   1.000  Al
  Al6136   1.0000 0.72500  0.87500  0.57500  Biso   1.000  Al
  Al6137   1.0000 0.77500  0.82500  0.57500  Biso   1.000  Al
  Al6138   1.0000 0.77500  0.87500  0.55000  Biso   1.000  Al
  Al6139   1.0000 0.72500  0.82500  0.60000  Biso   1.000  Al
  Al6140   1.0000 0.72500  0.87500  0.62500  Biso   1.000  Al
  Al6141   1.0000 0.77500  0.82500  0.62500  Biso   1.000  Al
  Al6142   1.0000 0.77500  0.87500  0.60000  Biso   1.000  Al
  Al6143   1.0000 0.72500  0.82500  0.65000  Biso   1.000  Al
  Al6144   1.0000 0.72500  0.87500  0.67500  Biso   1.000  Al
  Al6145   1.0000 0.77500  0.82500  0.67500  Biso   1.000  Al
  Al6146   1.0000 0.77500  0.87500  0.65000  Biso   1.000  Al
  Al6147   1.0000 0.72500  0.82500  0.70000  Biso   1.000  Al
  Al6148   1.0000 0.72500  0.87500  0.72500  Biso   1.000  Al
  Al6149   1.0000 0.77500  0.82500  0.72500  Biso   1.000  Al
  Al6150   1.0000 0.77500  0.87500  0.70000  Biso   1.000  Al
  Al6151   1.0000 0.72500  0.82500  0.75000  Biso   1.000  Al
  Al6152   1.0000 0.72500  0.87500  0.77500  Biso   1.000  Al
  Al6153   1.0000 0.77500  0.82500  0.77500  Biso   1.000  Al
  Al6154   1.0000 0.77500  0.87500  0.75000  Biso   1.000  Al
  Al6155   1.0000 0.72500  0.82500  0.80000  Biso   1.000  Al
  Al6156   1.0000 0.72500  0.87500  0.82500  Biso   1.000  Al
  Al6157   1.0000 0.77500  0.82500  0.82500  Biso   1.000  Al
  Al6158   1.0000 0.77500  0.87500  0.80000  Biso   1.000  Al
  Al6159   1.0000 0.72500  0.82500  0.85000  Biso   1.000  Al
  Al6160   1.0000 0.72500  0.87500  0.87500  Biso   1.000  Al
  Al6161   1.0000 0.77500  0.82500  0.87500  Biso   1.000  Al
  Al6162   1.0000 0.77500  0.87500  0.85000  Biso   1.000  Al
  Al6163   1.0000 0.72500  0.82500  0.90000  Biso   1.000  Al
  Al6164   1.0000 0.72500  0.87500  0.92500  Biso   1.000  Al
  Al6165   1.0000 0.77500  0.82500  0.92500  Biso   1.000  Al
  Al6166   1.0000 0.77500  0.87500  0.90000  Biso   1.000  Al
  Al6167   1.0000 0.72500  0.82500  0.95000  Biso   1.000  Al
  Al6168   1.0000 0.72500  0.87500  0.97500  Biso   1.000  Al
  Al6169   1.0000 0.77500  0.82500  0.97500  Biso   1.000  Al
  Al6170   1.0000 0.77500  0.87500  0.95000  Biso   1.000  Al
  Al6171   1.0000 0.72500  0.92500  0.00000  Biso   1.000  Al
  Al6172   1.0000 0.72500  0.97500  0.02500  Biso   1.000  Al
  Al6173   1.0000 0.77500  0.92500  0.02500  Biso   1.000  Al
  Al6174   1.0000 0.77500  0.97500  0.00000  Biso   1.000  Al
  Al6175   1.0000 0.72500  0.92500  0.05000  Biso   1.000  Al
  Al6176   1.0000 0.72500  0.97500  0.07500  Biso   1.000  Al
  Al6177   1.0000 0.77500  0.92500  0.07500  Biso   1.000  Al
  Al6178   1.0000 0.77500  0.97500  0.05000  Biso   1.000  Al
  Al6179   1.0000 0.72500  0.92500  0.10000  Biso   1.000  Al
  Al6180   1.0000 0.72500  0.97500  0.12500  Biso   1.000  Al
  Al6181   1.0000 0.77500  0.92500  0.12500  Biso   1.000  Al
  Al6182   1.0000 0.77500  0.97500  0.10000  Biso   1.000  Al
  Al6183   1.0000 0.72500  0.92500  0.15000  Biso   1.000  Al
  Al6184   1.0000 0.72500  0.97500  0.17500  Biso   1.000  Al
  Al6185   1.0000 0.77500  0.92500  0.17500  Biso   1.000  Al
  Al6186   1.0000 0.77500  0.97500  0.15000  Biso   1.000  Al
  Al6187   1.0000 0.72500  0.92500  0.20000  Biso   1.000  Al
  Al6188   1.0000 0.72500  0.97500  0.22500  Biso   1.000  Al
  Al6189   1.0000 0.77500  0.92500  0.22500  Biso   1.000  Al
  Al6190   1.0000 0.77500  0.97500  0.20000  Biso   1.000  Al
  Al6191   1.0000 0.72500  0.92500  0.25000  Biso   1.000  Al
  Al6192   1.0000 0.72500  0.97500  0.27500  Biso   1.000  Al
  Al6193   1.0000 0.77500  0.92500  0.27500  Biso   1.000  Al
  Al6194   1.0000 0.77500  0.97500  0.25000  Biso   1.000  Al
  Al6195   1.0000 0.72500  0.92500  0.30000  Biso   1.000  Al
  Al6196   1.0000 0.72500  0.97500  0.32500  Biso   1.000  Al
  Al6197   1.0000 0.77500  0.92500  0.32500  Biso   1.000  Al
  Al6198   1.0000 0.77500  0.97500  0.30000  Biso   1.000  Al
  Al6199   1.0000 0.72500  0.92500  0.35000  Biso   1.000  Al
  Al6200   1.0000 0.72500  0.97500  0.37500  Biso   1.000  Al
  Al6201   1.0000 0.77500  0.92500  0.37500  Biso   1.000  Al
  Al6202   1.0000 0.77500  0.97500  0.35000  Biso   1.000  Al
  Al6203   1.0000 0.72500  0.92500  0.40000  Biso   1.000  Al
  Al6204   1.0000 0.72500  0.97500  0.42500  Biso   1.000  Al
  Al6205   1.0000 0.77500  0.92500  0.42500  Biso   1.000  Al
  Al6206   1.0000 0.77500  0.97500  0.40000  Biso   1.000  Al
  Al6207   1.0000 0.72500  0.92500  0.45000  Biso   1.000  Al
  Al6208   1.0000 0.72500  0.97500  0.47500  Biso   1.000  Al
  Al6209   1.0000 0.77500  0.92500  0.47500  Biso   1.000  Al
  Al6210   1.0000 0.77500  0.97500  0.45000  Biso   1.000  Al
  Al6211   1.0000 0.72500  0.92500  0.50000  Biso   1.000  Al
  Al6212   1.0000 0.72500  0.97500  0.52500  Biso   1.000  Al
  Al6213   1.0000 0.77500  0.92500  0.52500  Biso   1.000  Al
  Al6214   1.0000 0.77500  0.97500  0.50000  Biso   1.000  Al
  Al6215   1.0000 0.72500  0.92500  0.55000  Biso   1.000  Al
  Al6216   1.0000 0.72500  0.97500  0.57500  Biso   1.000  Al
  Al6217   1.0000 0.77500  0.92500  0.57500  Biso   1.000  Al
  Al6218   1.0000 0.77500  0.97500  0.55000  Biso   1.000  Al
  Al6219   1.0000 0.72500  0.92500  0.60000  Biso   1.000  Al
  Al6220   1.0000 0.72500  0.97500  0.62500  Biso   1.000  Al
  Al6221   1.0000 0.77500  0.92500  0.62500  Biso   1.000  Al
  Al6222   1.0000 0.77500  0.97500  0.60000  Biso   1.000  Al
  Al6223   1.0000 0.72500  0.92500  0.65000  Biso   1.000  Al
  Al6224   1.0000 0.72500  0.97500  0.67500  Biso   1.000  Al
  Al6225   1.0000 0.77500  0.92500  0.67500  Biso   1.000  Al
  Al6226   1.0000 0.77500  0.97500  0.65000  Biso   1.000  Al
  Al6227   1.0000 0.72500  0.92500  0.70000  Biso   1.000  Al
  Al6228   1.0000 0.72500  0.97500  0.72500  Biso   1.000  Al
  Al6229   1.0000 0.77500  0.92500  0.72500  Biso   1.000  Al
  Al6230   1.0000 0.77500  0.97500  0.70000  Biso   1.000  Al
  Al6231   1.0000 0.72500  0.92500  0.75000  Biso   1.000  Al
  Al6232   1.0000 0.72500  0.97500  0.77500  Biso   1.000  Al
  Al6233   1.0000 0.77500  0.92500  0.77500  Biso   1.000  Al
  Al6234   1.0000 0.77500  0.97500  0.75000  Biso   1.000  Al
  Al6235   1.0000 0.72500  0.92500  0.80000  Biso   1.000  Al
  Al6236   1.0000 0.72500  0.97500  0.82500  Biso   1.000  Al
  Al6237   1.0000 0.77500  0.92500  0.82500  Biso   1.000  Al
  Al6238   1.0000 0.77500  0.97500  0.80000  Biso   1.000  Al
  Al6239   1.0000 0.72500  0.92500  0.85000  Biso   1.000  Al
  Al6240   1.0000 0.72500  0.97500  0.87500  Biso   1.000  Al
  Al6241   1.0000 0.77500  0.92500  0.87500  Biso   1.000  Al
  Al6242   1.0000 0.77500  0.97500  0.85000  Biso   1.000  Al
  Al6243   1.0000 0.72500  0.92500  0.90000  Biso   1.000  Al
  Al6244   1.0000 0.72500  0.97500  0.92500  Biso   1.000  Al
  Al6245   1.0000 0.77500  0.92500  0.92500  Biso   1.000  Al
  Al6246   1.0000 0.77500  0.97500  0.90000  Biso   1.000  Al
  Al6247   1.0000 0.72500  0.92500  0.95000  Biso   1.000  Al
  Al6248   1.0000 0.72500  0.97500  0.97500  Biso   1.000  Al
  Al6249   1.0000 0.77500  0.92500  0.97500  Biso   1.000  Al
  Al6250   1.0000 0.77500  0.97500  0.95000  Biso   1.000  Al
  Al6251   1.0000 0.82500  0.02500  0.00000  Biso   1.000  Al
  Al6252   1.0000 0.82500  0.07500  0.02500  Biso   1.000  Al
  Al6253   1.0000 0.87500  0.02500  0.02500  Biso   1.000  Al
  Al6254   1.0000 0.87500  0.07500  0.00000  Biso   1.000  Al
  Al6255   1.0000 0.82500  0.02500  0.05000  Biso   1.000  Al
  Al6256   1.0000 0.82500  0.07500  0.07500  Biso   1.000  Al
  Al6257   1.0000 0.87500  0.02500  0.07500  Biso   1.000  Al
  Al6258   1.0000 0.87500  0.07500  0.05000  Biso   1.000  Al
  Al6259   1.0000 0.82500  0.02500  0.10000  Biso   1.000  Al
  Al6260   1.0000 0.82500  0.07500  0.12500  Biso   1.000  Al
  Al6261   1.0000 0.87500  0.02500  0.12500  Biso   1.000  Al
  Al6262   1.0000 0.87500  0.07500  0.10000  Biso   1.000  Al
  Al6263   1.0000 0.82500  0.02500  0.15000  Biso   1.000  Al
  Al6264   1.0000 0.82500  0.07500  0.17500  Biso   1.000  Al
  Al6265   1.0000 0.87500  0.02500  0.17500  Biso   1.000  Al
  Al6266   1.0000 0.87500  0.07500  0.15000  Biso   1.000  Al
  Al6267   1.0000 0.82500  0.02500  0.20000  Biso   1.000  Al
  Al6268   1.0000 0.82500  0.07500  0.22500  Biso   1.000  Al
  Al6269   1.0000 0.87500  0.02500  0.22500  Biso   1.000  Al
  Al6270   1.0000 0.87500  0.07500  0.20000  Biso   1.000  Al
  Al6271   1.0000 0.82500  0.02500  0.25000  Biso   1.000  Al
  Al6272   1.0000 0.82500  0.07500  0.27500  Biso   1.000  Al
  Al6273   1.0000 0.87500  0.02500  0.27500  Biso   1.000  Al
  Al6274   1.0000 0.87500  0.07500  0.25000  Biso   1.000  Al
  Al6275   1.0000 0.82500  0.02500  0.30000  Biso   1.000  Al
  Al6276   1.0000 0.82500  0.07500  0.32500  Biso   1.000  Al
  Al6277   1.0000 0.87500  0.02500  0.32500  Biso   1.000  Al
  Al6278   1.0000 0.87500  0.07500  0.30000  Biso   1.000  Al
  Al6279   1.0000 0.82500  0.02500  0.35000  Biso   1.000  Al
  Al6280   1.0000 0.82500  0.07500  0.37500  Biso   1.000  Al
  Al6281   1.0000 0.87500  0.02500  0.37500  Biso   1.000  Al
  Al6282   1.0000 0.87500  0.07500  0.35000  Biso   1.000  Al
  Al6283   1.0000 0.82500  0.02500  0.40000  Biso   1.000  Al
  Al6284   1.0000 0.82500  0.07500  0.42500  Biso   1.000  Al
  Al6285   1.0000 0.87500  0.02500  0.42500  Biso   1.000  Al
  Al6286   1.0000 0.87500  0.07500  0.40000  Biso   1.000  Al
  Al6287   1.0000 0.82500  0.02500  0.45000  Biso   1.000  Al
  Al6288   1.0000 0.82500  0.07500  0.47500  Biso   1.000  Al
  Al6289   1.0000 0.87500  0.02500  0.47500  Biso   1.000  Al
  Al6290   1.0000 0.87500  0.07500  0.45000  Biso   1.000  Al
  Al6291   1.0000 0.82500  0.02500  0.50000  Biso   1.000  Al
  Al6292   1.0000 0.82500  0.07500  0.52500  Biso   1.000  Al
  Al6293   1.0000 0.87500  0.02500  0.52500  Biso   1.000  Al
  Al6294   1.0000 0.87500  0.07500  0.50000  Biso   1.000  Al
  Al6295   1.0000 0.82500  0.02500  0.55000  Biso   1.000  Al
  Al6296   1.0000 0.82500  0.07500  0.57500  Biso   1.000  Al
  Al6297   1.0000 0.87500  0.02500  0.57500  Biso   1.000  Al
  Al6298   1.0000 0.87500  0.07500  0.55000  Biso   1.000  Al
  Al6299   1.0000 0.82500  0.02500  0.60000  Biso   1.000  Al
  Al6300   1.0000 0.82500  0.07500  0.62500  Biso   1.000  Al
  Al6301   1.0000 0.87500  0.02500  0.62500  Biso   1.000  Al
  Al6302   1.0000 0.87500  0.07500  0.60000  Biso   1.000  Al
  Al6303   1.0000 0.82500  0.02500  0.65000  Biso   1.000  Al
  Al6304   1.0000 0.82500  0.07500  0.67500  Biso   1.000  Al
  Al6305   1.0000 0.87500  0.02500  0.67500  Biso   1.000  Al
  Al6306   1.0000 0.87500  0.07500  0.65000  Biso   1.000  Al
  Al6307   1.0000 0.82500  0.02500  0.70000  Biso   1.000  Al
  Al6308   1.0000 0.82500  0.07500  0.72500  Biso   1.000  Al
  Al6309   1.0000 0.87500  0.02500  0.72500  Biso   1.000  Al
  Al6310   1.0000 0.87500  0.07500  0.70000  Biso   1.000  Al
  Al6311   1.0000 0.82500  0.02500  0.75000  Biso   1.000  Al
  Al6312   1.0000 0.82500  0.07500  0.77500  Biso   1.000  Al
  Al6313   1.0000 0.87500  0.02500  0.77500  Biso   1.000  Al
  Al6314   1.0000 0.87500  0.07500  0.75000  Biso   1.000  Al
  Al6315   1.0000 0.82500  0.02500  0.80000  Biso   1.000  Al
  Al6316   1.0000 0.82500  0.07500  0.82500  Biso   1.000  Al
  Al6317   1.0000 0.87500  0.02500  0.82500  Biso   1.000  Al
  Al6318   1.0000 0.87500  0.07500  0.80000  Biso   1.000  Al
  Al6319   1.0000 0.82500  0.02500  0.85000  Biso   1.000  Al
  Al6320   1.0000 0.82500  0.07500  0.87500  Biso   1.000  Al
  Al6321   1.0000 0.87500  0.02500  0.87500  Biso   1.000  Al
  Al6322   1.0000 0.87500  0.07500  0.85000  Biso   1.000  Al
  Al6323   1.0000 0.82500  0.02500  0.90000  Biso   1.000  Al
  Al6324   1.0000 0.82500  0.07500  0.92500  Biso   1.000  Al
  Al6325   1.0000 0.87500  0.02500  0.92500  Biso   1.000  Al
  Al6326   1.0000 0.87500  0.07500  0.90000  Biso   1.000  Al
  Al6327   1.0000 0.82500  0.02500  0.95000  Biso   1.000  Al
  Al6328   1.0000 0.82500  0.07500  0.97500  Biso   1.000  Al
  Al6329   1.0000 0.87500  0.02500  0.97500  Biso   1.000  Al
  Al6330   1.0000 0.87500  0.07500  0.95000  Biso   1.000  Al
  Al6331   1.0000 0.82500  0.12500  0.00000  Biso   1.000  Al
  Al6332   1.0000 0.82500  0.17500  0.02500  Biso   1.000  Al
  Al6333   1.0000 0.87500  0.12500  0.02500  Biso   1.000  Al
  Al6334   1.0000 0.87500  0.17500  0.00000  Biso   1.000  Al
  Al6335   1.0000 0.82500  0.12500  0.05000  Biso   1.000  Al
  Al6336   1.0000 0.82500  0.17500  0.07500  Biso   1.000  Al
  Al6337   1.0000 0.87500  0.12500  0.07500  Biso   1.000  Al
  Al6338   1.0000 0.87500  0.17500  0.05000  Biso   1.000  Al
  Al6339   1.0000 0.82500  0.12500  0.10000  Biso   1.000  Al
  Al6340   1.0000 0.82500  0.17500  0.12500  Biso   1.000  Al
  Al6341   1.0000 0.87500  0.12500  0.12500  Biso   1.000  Al
  Al6342   1.0000 0.87500  0.17500  0.10000  Biso   1.000  Al
  Al6343   1.0000 0.82500  0.12500  0.15000  Biso   1.000  Al
  Al6344   1.0000 0.82500  0.17500  0.17500  Biso   1.000  Al
  Al6345   1.0000 0.87500  0.12500  0.17500  Biso   1.000  Al
  Al6346   1.0000 0.87500  0.17500  0.15000  Biso   1.000  Al
  Al6347   1.0000 0.82500  0.12500  0.20000  Biso   1.000  Al
  Al6348   1.0000 0.82500  0.17500  0.22500  Biso   1.000  Al
  Al6349   1.0000 0.87500  0.12500  0.22500  Biso   1.000  Al
  Al6350   1.0000 0.87500  0.17500  0.20000  Biso   1.000  Al
  Al6351   1.0000 0.82500  0.12500  0.25000  Biso   1.000  Al
  Al6352   1.0000 0.82500  0.17500  0.27500  Biso   1.000  Al
  Al6353   1.0000 0.87500  0.12500  0.27500  Biso   1.000  Al
  Al6354   1.0000 0.87500  0.17500  0.25000  Biso   1.000  Al
  Al6355   1.0000 0.82500  0.12500  0.30000  Biso   1.000  Al
  Al6356   1.0000 0.82500  0.17500  0.32500  Biso   1.000  Al
  Al6357   1.0000 0.87500  0.12500  0.32500  Biso   1.000  Al
  Al6358   1.0000 0.87500  0.17500  0.30000  Biso   1.000  Al
  Al6359   1.0000 0.82500  0.12500  0.35000  Biso   1.000  Al
  Al6360   1.0000 0.82500  0.17500  0.37500  Biso   1.000  Al
  Al6361   1.0000 0.87500  0.12500  0.37500  Biso   1.000  Al
  Al6362   1.0000 0.87500  0.17500  0.35000  Biso   1.000  Al
  Al6363   1.0000 0.82500  0.12500  0.40000  Biso   1.000  Al
  Al6364   1.0000 0.82500  0.17500  0.42500  Biso   1.000  Al
  Al6365   1.0000 0.87500  0.12500  0.42500  Biso   1.000  Al
  Al6366   1.0000 0.87500  0.17500  0.40000  Biso   1.000  Al
  Al6367   1.0000 0.82500  0.12500  0.45000  Biso   1.000  Al
  Al6368   1.0000 0.82500  0.17500  0.47500  Biso   1.000  Al
  Al6369   1.0000 0.87500  0.12500  0.47500  Biso   1.000  Al
  Al6370   1.0000 0.87500  0.17500  0.45000  Biso   1.000  Al
  Al6371   1.0000 0.82500  0.12500  0.50000  Biso   1.000  Al
  Al6372   1.0000 0.82500  0.17500  0.52500  Biso   1.000  Al
  Al6373   1.0000 0.87500  0.12500  0.52500  Biso   1.000  Al
  Al6374   1.0000 0.87500  0.17500  0.50000  Biso   1.000  Al
  Al6375   1.0000 0.82500  0.12500  0.55000  Biso   1.000  Al
  Al6376   1.0000 0.82500  0.17500  0.57500  Biso   1.000  Al
  Al6377   1.0000 0.87500  0.12500  0.57500  Biso   1.000  Al
  Al6378   1.0000 0.87500  0.17500  0.55000  Biso   1.000  Al
  Al6379   1.0000 0.82500  0.12500  0.60000  Biso   1.000  Al
  Al6380   1.0000 0.82500  0.17500  0.62500  Biso   1.000  Al
  Al6381   1.0000 0.87500  0.12500  0.62500  Biso   1.000  Al
  Al6382   1.0000 0.87500  0.17500  0.60000  Biso   1.000  Al
  Al6383   1.0000 0.82500  0.12500  0.65000  Biso   1.000  Al
  Al6384   1.0000 0.82500  0.17500  0.67500  Biso   1.000  Al
  Al6385   1.0000 0.87500  0.12500  0.67500  Biso   1.000  Al
  Al6386   1.0000 0.87500  0.17500  0.65000  Biso   1.000  Al
  Al6387   1.0000 0.82500  0.12500  0.70000  Biso   1.000  Al
  Al6388   1.0000 0.82500  0.17500  0.72500  Biso   1.000  Al
  Al6389   1.0000 0.87500  0.12500  0.72500  Biso   1.000  Al
  Al6390   1.0000 0.87500  0.17500  0.70000  Biso   1.000  Al
  Al6391   1.0000 0.82500  0.12500  0.75000  Biso   1.000  Al
  Al6392   1.0000 0.82500  0.17500  0.77500  Biso   1.000  Al
  Al6393   1.0000 0.87500  0.12500  0.77500  Biso   1.000  Al
  Al6394   1.0000 0.87500  0.17500  0.75000  Biso   1.000  Al
  Al6395   1.0000 0.82500  0.12500  0.80000  Biso   1.000  Al
  Al6396   1.0000 0.82500  0.17500  0.82500  Biso   1.000  Al
  Al6397   1.0000 0.87500  0.12500  0.82500  Biso   1.000  Al
  Al6398   1.0000 0.87500  0.17500  0.80000  Biso   1.000  Al
  Al6399   1.0000 0.82500  0.12500  0.85000  Biso   1.000  Al
  Al6400   1.0000 0.82500  0.17500  0.87500  Biso   1.000  Al
  Al6401   1.0000 0.87500  0.12500  0.87500  Biso   1.000  Al
  Al6402   1.0000 0.87500  0.17500  0.85000  Biso   1.000  Al
  Al6403   1.0000 0.82500  0.12500  0.90000  Biso   1.000  Al
  Al6404   1.0000 0.82500  0.17500  0.92500  Biso   1.000  Al
  Al6405   1.0000 0.87500  0.12500  0.92500  Biso   1.000  Al
  Al6406   1.0000 0.87500  0.17500  0.90000  Biso   1.000  Al
  Al6407   1.0000 0.82500  0.12500  0.95000  Biso   1.000  Al
  Al6408   1.0000 0.82500  0.17500  0.97500  Biso   1.000  Al
  Al6409   1.0000 0.87500  0.12500  0.97500  Biso   1.000  Al
  Al6410   1.0000 0.87500  0.17500  0.95000  Biso   1.000  Al
  Al6411   1.0000 0.82500  0.22500  0.00000  Biso   1.000  Al
  Al6412   1.0000 0.82500  0.27500  0.02500  Biso   1.000  Al
  Al6413   1.0000 0.87500  0.22500  0.02500  Biso   1.000  Al
  Al6414   1.0000 0.87500  0.27500  0.00000  Biso   1.000  Al
  Al6415   1.0000 0.82500  0.22500  0.05000  Biso   1.000  Al
  Al6416   1.0000 0.82500  0.27500  0.07500  Biso   1.000  Al
  Al6417   1.0000 0.87500  0.22500  0.07500  Biso   1.000  Al
  Al6418   1.0000 0.87500  0.27500  0.05000  Biso   1.000  Al
  Al6419   1.0000 0.82500  0.22500  0.10000  Biso   1.000  Al
  Al6420   1.0000 0.82500  0.27500  0.12500  Biso   1.000  Al
  Al6421   1.0000 0.87500  0.22500  0.12500  Biso   1.000  Al
  Al6422   1.0000 0.87500  0.27500  0.10000  Biso   1.000  Al
  Al6423   1.0000 0.82500  0.22500  0.15000  Biso   1.000  Al
  Al6424   1.0000 0.82500  0.27500  0.17500  Biso   1.000  Al
  Al6425   1.0000 0.87500  0.22500  0.17500  Biso   1.000  Al
  Al6426   1.0000 0.87500  0.27500  0.15000  Biso   1.000  Al
  Al6427   1.0000 0.82500  0.22500  0.20000  Biso   1.000  Al
  Al6428   1.0000 0.82500  0.27500  0.22500  Biso   1.000  Al
  Al6429   1.0000 0.87500  0.22500  0.22500  Biso   1.000  Al
  Al6430   1.0000 0.87500  0.27500  0.20000  Biso   1.000  Al
  Al6431   1.0000 0.82500  0.22500  0.25000  Biso   1.000  Al
  Al6432   1.0000 0.82500  0.27500  0.27500  Biso   1.000  Al
  Al6433   1.0000 0.87500  0.22500  0.27500  Biso   1.000  Al
  Al6434   1.0000 0.87500  0.27500  0.25000  Biso   1.000  Al
  Al6435   1.0000 0.82500  0.22500  0.30000  Biso   1.000  Al
  Al6436   1.0000 0.82500  0.27500  0.32500  Biso   1.000  Al
  Al6437   1.0000 0.87500  0.22500  0.32500  Biso   1.000  Al
  Al6438   1.0000 0.87500  0.27500  0.30000  Biso   1.000  Al
  Al6439   1.0000 0.82500  0.22500  0.35000  Biso   1.000  Al
  Al6440   1.0000 0.82500  0.27500  0.37500  Biso   1.000  Al
  Al6441   1.0000 0.87500  0.22500  0.37500  Biso   1.000  Al
  Al6442   1.0000 0.87500  0.27500  0.35000  Biso   1.000  Al
  Al6443   1.0000 0.82500  0.22500  0.40000  Biso   1.000  Al
  Al6444   1.0000 0.82500  0.27500  0.42500  Biso   1.000  Al
  Al6445   1.0000 0.87500  0.22500  0.42500  Biso   1.000  Al
  Al6446   1.0000 0.87500  0.27500  0.40000  Biso   1.000  Al
  Al6447   1.0000 0.82500  0.22500  0.45000  Biso   1.000  Al
  Al6448   1.0000 0.82500  0.27500  0.47500  Biso   1.000  Al
  Al6449   1.0000 0.87500  0.22500  0.47500  Biso   1.000  Al
  Al6450   1.0000 0.87500  0.27500  0.45000  Biso   1.000  Al
  Al6451   1.0000 0.82500  0.22500  0.50000  Biso   1.000  Al
  Al6452   1.0000 0.82500  0.27500  0.52500  Biso   1.000  Al
  Al6453   1.0000 0.87500  0.22500  0.52500  Biso   1.000  Al
  Al6454   1.0000 0.87500  0.27500  0.50000  Biso   1.000  Al
  Al6455   1.0000 0.82500  0.22500  0.55000  Biso   1.000  Al
  Al6456   1.0000 0.82500  0.27500  0.57500  Biso   1.000  Al
  Al6457   1.0000 0.87500  0.22500  0.57500  Biso   1.000  Al
  Al6458   1.0000 0.87500  0.27500  0.55000  Biso   1.000  Al
  Al6459   1.0000 0.82500  0.22500  0.60000  Biso   1.000  Al
  Al6460   1.0000 0.82500  0.27500  0.62500  Biso   1.000  Al
  Al6461   1.0000 0.87500  0.22500  0.62500  Biso   1.000  Al
  Al6462   1.0000 0.87500  0.27500  0.60000  Biso   1.000  Al
  Al6463   1.0000 0.82500  0.22500  0.65000  Biso   1.000  Al
  Al6464   1.0000 0.82500  0.27500  0.67500  Biso   1.000  Al
  Al6465   1.0000 0.87500  0.22500  0.67500  Biso   1.000  Al
  Al6466   1.0000 0.87500  0.27500  0.65000  Biso   1.000  Al
  Al6467   1.0000 0.82500  0.22500  0.70000  Biso   1.000  Al
  Al6468   1.0000 0.82500  0.27500  0.72500  Biso   1.000  Al
  Al6469   1.0000 0.87500  0.22500  0.72500  Biso   1.000  Al
  Al6470   1.0000 0.87500  0.27500  0.70000  Biso   1.000  Al
  Al6471   1.0000 0.82500  0.22500  0.75000  Biso   1.000  Al
  Al6472   1.0000 0.82500  0.27500  0.77500  Biso   1.000  Al
  Al6473   1.0000 0.87500  0.22500  0.77500  Biso   1.000  Al
  Al6474   1.0000 0.87500  0.27500  0.75000  Biso   1.000  Al
  Al6475   1.0000 0.82500  0.22500  0.80000  Biso   1.000  Al
  Al6476   1.0000 0.82500  0.27500  0.82500  Biso   1.000  Al
  Al6477   1.0000 0.87500  0.22500  0.82500  Biso   1.000  Al
  Al6478   1.0000 0.87500  0.27500  0.80000  Biso   1.000  Al
  Al6479   1.0000 0.82500  0.22500  0.85000  Biso   1.000  Al
  Al6480   1.0000 0.82500  0.27500  0.87500  Biso   1.000  Al
  Al6481   1.0000 0.87500  0.22500  0.87500  Biso   1.000  Al
  Al6482   1.0000 0.87500  0.27500  0.85000  Biso   1.000  Al
  Al6483   1.0000 0.82500  0.22500  0.90000  Biso   1.000  Al
  Al6484   1.0000 0.82500  0.27500  0.92500  Biso   1.000  Al
  Al6485   1.0000 0.87500  0.22500  0.92500  Biso   1.000  Al
  Al6486   1.0000 0.87500  0.27500  0.90000  Biso   1.000  Al
  Al6487   1.0000 0.82500  0.22500  0.95000  Biso   1.000  Al
  Al6488   1.0000 0.82500  0.27500  0.97500  Biso   1.000  Al
  Al6489   1.0000 0.87500  0.22500  0.97500  Biso   1.000  Al
  Al6490   1.0000 0.87500  0.27500  0.95000  Biso   1.000  Al
  Al6491   1.0000 0.82500  0.32500  0.00000  Biso   1.000  Al
  Al6492   1.0000 0.82500  0.37500  0.02500  Biso   1.000  Al
  Al6493   1.0000 0.87500  0.32500  0.02500  Biso   1.000  Al
  Al6494   1.0000 0.87500  0.37500  0.00000  Biso   1.000  Al
  Al6495   1.0000 0.82500  0.32500  0.05000  Biso   1.000  Al
  Al6496   1.0000 0.82500  0.37500  0.07500  Biso   1.000  Al
  Al6497   1.0000 0.87500  0.32500  0.07500  Biso   1.000  Al
  Al6498   1.0000 0.87500  0.37500  0.05000  Biso   1.000  Al
  Al6499   1.0000 0.82500  0.32500  0.10000  Biso   1.000  Al
  Al6500   1.0000 0.82500  0.37500  0.12500  Biso   1.000  Al
  Al6501   1.0000 0.87500  0.32500  0.12500  Biso   1.000  Al
  Al6502   1.0000 0.87500  0.37500  0.10000  Biso   1.000  Al
  Al6503   1.0000 0.82500  0.32500  0.15000  Biso   1.000  Al
  Al6504   1.0000 0.82500  0.37500  0.17500  Biso   1.000  Al
  Al6505   1.0000 0.87500  0.32500  0.17500  Biso   1.000  Al
  Al6506   1.0000 0.87500  0.37500  0.15000  Biso   1.000  Al
  Al6507   1.0000 0.82500  0.32500  0.20000  Biso   1.000  Al
  Al6508   1.0000 0.82500  0.37500  0.22500  Biso   1.000  Al
  Al6509   1.0000 0.87500  0.32500  0.22500  Biso   1.000  Al
  Al6510   1.0000 0.87500  0.37500  0.20000  Biso   1.000  Al
  Al6511   1.0000 0.82500  0.32500  0.25000  Biso   1.000  Al
  Al6512   1.0000 0.82500  0.37500  0.27500  Biso   1.000  Al
  Al6513   1.0000 0.87500  0.32500  0.27500  Biso   1.000  Al
  Al6514   1.0000 0.87500  0.37500  0.25000  Biso   1.000  Al
  Al6515   1.0000 0.82500  0.32500  0.30000  Biso   1.000  Al
  Al6516   1.0000 0.82500  0.37500  0.32500  Biso   1.000  Al
  Al6517   1.0000 0.87500  0.32500  0.32500  Biso   1.000  Al
  Al6518   1.0000 0.87500  0.37500  0.30000  Biso   1.000  Al
  Al6519   1.0000 0.82500  0.32500  0.35000  Biso   1.000  Al
  Al6520   1.0000 0.82500  0.37500  0.37500  Biso   1.000  Al
  Al6521   1.0000 0.87500  0.32500  0.37500  Biso   1.000  Al
  Al6522   1.0000 0.87500  0.37500  0.35000  Biso   1.000  Al
  Al6523   1.0000 0.82500  0.32500  0.40000  Biso   1.000  Al
  Al6524   1.0000 0.82500  0.37500  0.42500  Biso   1.000  Al
  Al6525   1.0000 0.87500  0.32500  0.42500  Biso   1.000  Al
  Al6526   1.0000 0.87500  0.37500  0.40000  Biso   1.000  Al
  Al6527   1.0000 0.82500  0.32500  0.45000  Biso   1.000  Al
  Al6528   1.0000 0.82500  0.37500  0.47500  Biso   1.000  Al
  Al6529   1.0000 0.87500  0.32500  0.47500  Biso   1.000  Al
  Al6530   1.0000 0.87500  0.37500  0.45000  Biso   1.000  Al
  Al6531   1.0000 0.82500  0.32500  0.50000  Biso   1.000  Al
  Al6532   1.0000 0.82500  0.37500  0.52500  Biso   1.000  Al
  Al6533   1.0000 0.87500  0.32500  0.52500  Biso   1.000  Al
  Al6534   1.0000 0.87500  0.37500  0.50000  Biso   1.000  Al
  Al6535   1.0000 0.82500  0.32500  0.55000  Biso   1.000  Al
  Al6536   1.0000 0.82500  0.37500  0.57500  Biso   1.000  Al
  Al6537   1.0000 0.87500  0.32500  0.57500  Biso   1.000  Al
  Al6538   1.0000 0.87500  0.37500  0.55000  Biso   1.000  Al
  Al6539   1.0000 0.82500  0.32500  0.60000  Biso   1.000  Al
  Al6540   1.0000 0.82500  0.37500  0.62500  Biso   1.000  Al
  Al6541   1.0000 0.87500  0.32500  0.62500  Biso   1.000  Al
  Al6542   1.0000 0.87500  0.37500  0.60000  Biso   1.000  Al
  Al6543   1.0000 0.82500  0.32500  0.65000  Biso   1.000  Al
  Al6544   1.0000 0.82500  0.37500  0.67500  Biso   1.000  Al
  Al6545   1.0000 0.87500  0.32500  0.67500  Biso   1.000  Al
  Al6546   1.0000 0.87500  0.37500  0.65000  Biso   1.000  Al
  Al6547   1.0000 0.82500  0.32500  0.70000  Biso   1.000  Al
  Al6548   1.0000 0.82500  0.37500  0.72500  Biso   1.000  Al
  Al6549   1.0000 0.87500  0.32500  0.72500  Biso   1.000  Al
  Al6550   1.0000 0.87500  0.37500  0.70000  Biso   1.000  Al
  Al6551   1.0000 0.82500  0.32500  0.75000  Biso   1.000  Al
  Al6552   1.0000 0.82500  0.37500  0.77500  Biso   1.000  Al
  Al6553   1.0000 0.87500  0.32500  0.77500  Biso   1.000  Al
  Al6554   1.0000 0.87500  0.37500  0.75000  Biso   1.000  Al
  Al6555   1.0000 0.82500  0.32500  0.80000  Biso   1.000  Al
  Al6556   1.0000 0.82500  0.37500  0.82500  Biso   1.000  Al
  Al6557   1.0000 0.87500  0.32500  0.82500  Biso   1.000  Al
  Al6558   1.0000 0.87500  0.37500  0.80000  Biso   1.000  Al
  Al6559   1.0000 0.82500  0.32500  0.85000  Biso   1.000  Al
  Al6560   1.0000 0.82500  0.37500  0.87500  Biso   1.000  Al
  Al6561   1.0000 0.87500  0.32500  0.87500  Biso   1.000  Al
  Al6562   1.0000 0.87500  0.37500  0.85000  Biso   1.000  Al
  Al6563   1.0000 0.82500  0.32500  0.90000  Biso   1.000  Al
  Al6564   1.0000 0.82500  0.37500  0.92500  Biso   1.000  Al
  Al6565   1.0000 0.87500  0.32500  0.92500  Biso   1.000  Al
  Al6566   1.0000 0.87500  0.37500  0.90000  Biso   1.000  Al
  Al6567   1.0000 0.82500  0.32500  0.95000  Biso   1.000  Al
  Al6568   1.0000 0.82500  0.37500  0.97500  Biso   1.000  Al
  Al6569   1.0000 0.87500  0.32500  0.97500  Biso   1.000  Al
  Al6570   1.0000 0.87500  0.37500  0.95000  Biso   1.000  Al
  Al6571   1.0000 0.82500  0.42500  0.00000  Biso   1.000  Al
  Al6572   1.0000 0.82500  0.47500  0.02500  Biso   1.000  Al
  Al6573   1.0000 0.87500  0.42500  0.02500  Biso   1.000  Al
  Al6574   1.0000 0.87500  0.47500  0.00000  Biso   1.000  Al
  Al6575   1.0000 0.82500  0.42500  0.05000  Biso   1.000  Al
  Al6576   1.0000 0.82500  0.47500  0.07500  Biso   1.000  Al
  Al6577   1.0000 0.87500  0.42500  0.07500  Biso   1.000  Al
  Al6578   1.0000 0.87500  0.47500  0.05000  Biso   1.000  Al
  Al6579   1.0000 0.82500  0.42500  0.10000  Biso   1.000  Al
  Al6580   1.0000 0.82500  0.47500  0.12500  Biso   1.000  Al
  Al6581   1.0000 0.87500  0.42500  0.12500  Biso   1.000  Al
  Al6582   1.0000 0.87500  0.47500  0.10000  Biso   1.000  Al
  Al6583   1.0000 0.82500  0.42500  0.15000  Biso   1.000  Al
  Al6584   1.0000 0.82500  0.47500  0.17500  Biso   1.000  Al
  Al6585   1.0000 0.87500  0.42500  0.17500  Biso   1.000  Al
  Al6586   1.0000 0.87500  0.47500  0.15000  Biso   1.000  Al
  Al6587   1.0000 0.82500  0.42500  0.20000  Biso   1.000  Al
  Al6588   1.0000 0.82500  0.47500  0.22500  Biso   1.000  Al
  Al6589   1.0000 0.87500  0.42500  0.22500  Biso   1.000  Al
  Al6590   1.0000 0.87500  0.47500  0.20000  Biso   1.000  Al
  Al6591   1.0000 0.82500  0.42500  0.25000  Biso   1.000  Al
  Al6592   1.0000 0.82500  0.47500  0.27500  Biso   1.000  Al
  Al6593   1.0000 0.87500  0.42500  0.27500  Biso   1.000  Al
  Al6594   1.0000 0.87500  0.47500  0.25000  Biso   1.000  Al
  Al6595   1.0000 0.82500  0.42500  0.30000  Biso   1.000  Al
  Al6596   1.0000 0.82500  0.47500  0.32500  Biso   1.000  Al
  Al6597   1.0000 0.87500  0.42500  0.32500  Biso   1.000  Al
  Al6598   1.0000 0.87500  0.47500  0.30000  Biso   1.000  Al
  Al6599   1.0000 0.82500  0.42500  0.35000  Biso   1.000  Al
  Al6600   1.0000 0.82500  0.47500  0.37500  Biso   1.000  Al
  Al6601   1.0000 0.87500  0.42500  0.37500  Biso   1.000  Al
  Al6602   1.0000 0.87500  0.47500  0.35000  Biso   1.000  Al
  Al6603   1.0000 0.82500  0.42500  0.40000  Biso   1.000  Al
  Al6604   1.0000 0.82500  0.47500  0.42500  Biso   1.000  Al
  Al6605   1.0000 0.87500  0.42500  0.42500  Biso   1.000  Al
  Al6606   1.0000 0.87500  0.47500  0.40000  Biso   1.000  Al
  Al6607   1.0000 0.82500  0.42500  0.45000  Biso   1.000  Al
  Al6608   1.0000 0.82500  0.47500  0.47500  Biso   1.000  Al
  Al6609   1.0000 0.87500  0.42500  0.47500  Biso   1.000  Al
  Al6610   1.0000 0.87500  0.47500  0.45000  Biso   1.000  Al
  Al6611   1.0000 0.82500  0.42500  0.50000  Biso   1.000  Al
  Al6612   1.0000 0.82500  0.47500  0.52500  Biso   1.000  Al
  Al6613   1.0000 0.87500  0.42500  0.52500  Biso   1.000  Al
  Al6614   1.0000 0.87500  0.47500  0.50000  Biso   1.000  Al
  Al6615   1.0000 0.82500  0.42500  0.55000  Biso   1.000  Al
  Al6616   1.0000 0.82500  0.47500  0.57500  Biso   1.000  Al
  Al6617   1.0000 0.87500  0.42500  0.57500  Biso   1.000  Al
  Al6618   1.0000 0.87500  0.47500  0.55000  Biso   1.000  Al
  Al6619   1.0000 0.82500  0.42500  0.60000  Biso   1.000  Al
  Al6620   1.0000 0.82500  0.47500  0.62500  Biso   1.000  Al
  Al6621   1.0000 0.87500  0.42500  0.62500  Biso   1.000  Al
  Al6622   1.0000 0.87500  0.47500  0.60000  Biso   1.000  Al
  Al6623   1.0000 0.82500  0.42500  0.65000  Biso   1.000  Al
  Al6624   1.0000 0.82500  0.47500  0.67500  Biso   1.000  Al
  Al6625   1.0000 0.87500  0.42500  0.67500  Biso   1.000  Al
  Al6626   1.0000 0.87500  0.47500  0.65000  Biso   1.000  Al
  Al6627   1.0000 0.82500  0.42500  0.70000  Biso   1.000  Al
  Al6628   1.0000 0.82500  0.47500  0.72500  Biso   1.000  Al
  Al6629   1.0000 0.87500  0.42500  0.72500  Biso   1.000  Al
  Al6630   1.0000 0.87500  0.47500  0.70000  Biso   1.000  Al
  Al6631   1.0000 0.82500  0.42500  0.75000  Biso   1.000  Al
  Al6632   1.0000 0.82500  0.47500  0.77500  Biso   1.000  Al
  Al6633   1.0000 0.87500  0.42500  0.77500  Biso   1.000  Al
  Al6634   1.0000 0.87500  0.47500  0.75000  Biso   1.000  Al
  Al6635   1.0000 0.82500  0.42500  0.80000  Biso   1.000  Al
  Al6636   1.0000 0.82500  0.47500  0.82500  Biso   1.000  Al
  Al6637   1.0000 0.87500  0.42500  0.82500  Biso   1.000  Al
  Al6638   1.0000 0.87500  0.47500  0.80000  Biso   1.000  Al
  Al6639   1.0000 0.82500  0.42500  0.85000  Biso   1.000  Al
  Al6640   1.0000 0.82500  0.47500  0.87500  Biso   1.000  Al
  Al6641   1.0000 0.87500  0.42500  0.87500  Biso   1.000  Al
  Al6642   1.0000 0.87500  0.47500  0.85000  Biso   1.000  Al
  Al6643   1.0000 0.82500  0.42500  0.90000  Biso   1.000  Al
  Al6644   1.0000 0.82500  0.47500  0.92500  Biso   1.000  Al
  Al6645   1.0000 0.87500  0.42500  0.92500  Biso   1.000  Al
  Al6646   1.0000 0.87500  0.47500  0.90000  Biso   1.000  Al
  Al6647   1.0000 0.82500  0.42500  0.95000  Biso   1.000  Al
  Al6648   1.0000 0.82500  0.47500  0.97500  Biso   1.000  Al
  Al6649   1.0000 0.87500  0.42500  0.97500  Biso   1.000  Al
  Al6650   1.0000 0.87500  0.47500  0.95000  Biso   1.000  Al
  Al6651   1.0000 0.82500  0.52500  0.00000  Biso   1.000  Al
  Al6652   1.0000 0.82500  0.57500  0.02500  Biso   1.000  Al
  Al6653   1.0000 0.87500  0.52500  0.02500  Biso   1.000  Al
  Al6654   1.0000 0.87500  0.57500  0.00000  Biso   1.000  Al
  Al6655   1.0000 0.82500  0.52500  0.05000  Biso   1.000  Al
  Al6656   1.0000 0.82500  0.57500  0.07500  Biso   1.000  Al
  Al6657   1.0000 0.87500  0.52500  0.07500  Biso   1.000  Al
  Al6658   1.0000 0.87500  0.57500  0.05000  Biso   1.000  Al
  Al6659   1.0000 0.82500  0.52500  0.10000  Biso   1.000  Al
  Al6660   1.0000 0.82500  0.57500  0.12500  Biso   1.000  Al
  Al6661   1.0000 0.87500  0.52500  0.12500  Biso   1.000  Al
  Al6662   1.0000 0.87500  0.57500  0.10000  Biso   1.000  Al
  Al6663   1.0000 0.82500  0.52500  0.15000  Biso   1.000  Al
  Al6664   1.0000 0.82500  0.57500  0.17500  Biso   1.000  Al
  Al6665   1.0000 0.87500  0.52500  0.17500  Biso   1.000  Al
  Al6666   1.0000 0.87500  0.57500  0.15000  Biso   1.000  Al
  Al6667   1.0000 0.82500  0.52500  0.20000  Biso   1.000  Al
  Al6668   1.0000 0.82500  0.57500  0.22500  Biso   1.000  Al
  Al6669   1.0000 0.87500  0.52500  0.22500  Biso   1.000  Al
  Al6670   1.0000 0.87500  0.57500  0.20000  Biso   1.000  Al
  Al6671   1.0000 0.82500  0.52500  0.25000  Biso   1.000  Al
  Al6672   1.0000 0.82500  0.57500  0.27500  Biso   1.000  Al
  Al6673   1.0000 0.87500  0.52500  0.27500  Biso   1.000  Al
  Al6674   1.0000 0.87500  0.57500  0.25000  Biso   1.000  Al
  Al6675   1.0000 0.82500  0.52500  0.30000  Biso   1.000  Al
  Al6676   1.0000 0.82500  0.57500  0.32500  Biso   1.000  Al
  Al6677   1.0000 0.87500  0.52500  0.32500  Biso   1.000  Al
  Al6678   1.0000 0.87500  0.57500  0.30000  Biso   1.000  Al
  Al6679   1.0000 0.82500  0.52500  0.35000  Biso   1.000  Al
  Al6680   1.0000 0.82500  0.57500  0.37500  Biso   1.000  Al
  Al6681   1.0000 0.87500  0.52500  0.37500  Biso   1.000  Al
  Al6682   1.0000 0.87500  0.57500  0.35000  Biso   1.000  Al
  Al6683   1.0000 0.82500  0.52500  0.40000  Biso   1.000  Al
  Al6684   1.0000 0.82500  0.57500  0.42500  Biso   1.000  Al
  Al6685   1.0000 0.87500  0.52500  0.42500  Biso   1.000  Al
  Al6686   1.0000 0.87500  0.57500  0.40000  Biso   1.000  Al
  Al6687   1.0000 0.82500  0.52500  0.45000  Biso   1.000  Al
  Al6688   1.0000 0.82500  0.57500  0.47500  Biso   1.000  Al
  Al6689   1.0000 0.87500  0.52500  0.47500  Biso   1.000  Al
  Al6690   1.0000 0.87500  0.57500  0.45000  Biso   1.000  Al
  Al6691   1.0000 0.82500  0.52500  0.50000  Biso   1.000  Al
  Al6692   1.0000 0.82500  0.57500  0.52500  Biso   1.000  Al
  Al6693   1.0000 0.87500  0.52500  0.52500  Biso   1.000  Al
  Al6694   1.0000 0.87500  0.57500  0.50000  Biso   1.000  Al
  Al6695   1.0000 0.82500  0.52500  0.55000  Biso   1.000  Al
  Al6696   1.0000 0.82500  0.57500  0.57500  Biso   1.000  Al
  Al6697   1.0000 0.87500  0.52500  0.57500  Biso   1.000  Al
  Al6698   1.0000 0.87500  0.57500  0.55000  Biso   1.000  Al
  Al6699   1.0000 0.82500  0.52500  0.60000  Biso   1.000  Al
  Al6700   1.0000 0.82500  0.57500  0.62500  Biso   1.000  Al
  Al6701   1.0000 0.87500  0.52500  0.62500  Biso   1.000  Al
  Al6702   1.0000 0.87500  0.57500  0.60000  Biso   1.000  Al
  Al6703   1.0000 0.82500  0.52500  0.65000  Biso   1.000  Al
  Al6704   1.0000 0.82500  0.57500  0.67500  Biso   1.000  Al
  Al6705   1.0000 0.87500  0.52500  0.67500  Biso   1.000  Al
  Al6706   1.0000 0.87500  0.57500  0.65000  Biso   1.000  Al
  Al6707   1.0000 0.82500  0.52500  0.70000  Biso   1.000  Al
  Al6708   1.0000 0.82500  0.57500  0.72500  Biso   1.000  Al
  Al6709   1.0000 0.87500  0.52500  0.72500  Biso   1.000  Al
  Al6710   1.0000 0.87500  0.57500  0.70000  Biso   1.000  Al
  Al6711   1.0000 0.82500  0.52500  0.75000  Biso   1.000  Al
  Al6712   1.0000 0.82500  0.57500  0.77500  Biso   1.000  Al
  Al6713   1.0000 0.87500  0.52500  0.77500  Biso   1.000  Al
  Al6714   1.0000 0.87500  0.57500  0.75000  Biso   1.000  Al
  Al6715   1.0000 0.82500  0.52500  0.80000  Biso   1.000  Al
  Al6716   1.0000 0.82500  0.57500  0.82500  Biso   1.000  Al
  Al6717   1.0000 0.87500  0.52500  0.82500  Biso   1.000  Al
  Al6718   1.0000 0.87500  0.57500  0.80000  Biso   1.000  Al
  Al6719   1.0000 0.82500  0.52500  0.85000  Biso   1.000  Al
  Al6720   1.0000 0.82500  0.57500  0.87500  Biso   1.000  Al
  Al6721   1.0000 0.87500  0.52500  0.87500  Biso   1.000  Al
  Al6722   1.0000 0.87500  0.57500  0.85000  Biso   1.000  Al
  Al6723   1.0000 0.82500  0.52500  0.90000  Biso   1.000  Al
  Al6724   1.0000 0.82500  0.57500  0.92500  Biso   1.000  Al
  Al6725   1.0000 0.87500  0.52500  0.92500  Biso   1.000  Al
  Al6726   1.0000 0.87500  0.57500  0.90000  Biso   1.000  Al
  Al6727   1.0000 0.82500  0.52500  0.95000  Biso   1.000  Al
  Al6728   1.0000 0.82500  0.57500  0.97500  Biso   1.000  Al
  Al6729   1.0000 0.87500  0.52500  0.97500  Biso   1.000  Al
  Al6730   1.0000 0.87500  0.57500  0.95000  Biso   1.000  Al
  Al6731   1.0000 0.82500  0.62500  0.00000  Biso   1.000  Al
  Al6732   1.0000 0.82500  0.67500  0.02500  Biso   1.000  Al
  Al6733   1.0000 0.87500  0.62500  0.02500  Biso   1.000  Al
  Al6734   1.0000 0.87500  0.67500  0.00000  Biso   1.000  Al
  Al6735   1.0000 0.82500  0.62500  0.05000  Biso   1.000  Al
  Al6736   1.0000 0.82500  0.67500  0.07500  Biso   1.000  Al
  Al6737   1.0000 0.87500  0.62500  0.07500  Biso   1.000  Al
  Al6738   1.0000 0.87500  0.67500  0.05000  Biso   1.000  Al
  Al6739   1.0000 0.82500  0.62500  0.10000  Biso   1.000  Al
  Al6740   1.0000 0.82500  0.67500  0.12500  Biso   1.000  Al
  Al6741   1.0000 0.87500  0.62500  0.12500  Biso   1.000  Al
  Al6742   1.0000 0.87500  0.67500  0.10000  Biso   1.000  Al
  Al6743   1.0000 0.82500  0.62500  0.15000  Biso   1.000  Al
  Al6744   1.0000 0.82500  0.67500  0.17500  Biso   1.000  Al
  Al6745   1.0000 0.87500  0.62500  0.17500  Biso   1.000  Al
  Al6746   1.0000 0.87500  0.67500  0.15000  Biso   1.000  Al
  Al6747   1.0000 0.82500  0.62500  0.20000  Biso   1.000  Al
  Al6748   1.0000 0.82500  0.67500  0.22500  Biso   1.000  Al
  Al6749   1.0000 0.87500  0.62500  0.22500  Biso   1.000  Al
  Al6750   1.0000 0.87500  0.67500  0.20000  Biso   1.000  Al
  Al6751   1.0000 0.82500  0.62500  0.25000  Biso   1.000  Al
  Al6752   1.0000 0.82500  0.67500  0.27500  Biso   1.000  Al
  Al6753   1.0000 0.87500  0.62500  0.27500  Biso   1.000  Al
  Al6754   1.0000 0.87500  0.67500  0.25000  Biso   1.000  Al
  Al6755   1.0000 0.82500  0.62500  0.30000  Biso   1.000  Al
  Al6756   1.0000 0.82500  0.67500  0.32500  Biso   1.000  Al
  Al6757   1.0000 0.87500  0.62500  0.32500  Biso   1.000  Al
  Al6758   1.0000 0.87500  0.67500  0.30000  Biso   1.000  Al
  Al6759   1.0000 0.82500  0.62500  0.35000  Biso   1.000  Al
  Al6760   1.0000 0.82500  0.67500  0.37500  Biso   1.000  Al
  Al6761   1.0000 0.87500  0.62500  0.37500  Biso   1.000  Al
  Al6762   1.0000 0.87500  0.67500  0.35000  Biso   1.000  Al
  Al6763   1.0000 0.82500  0.62500  0.40000  Biso   1.000  Al
  Al6764   1.0000 0.82500  0.67500  0.42500  Biso   1.000  Al
  Al6765   1.0000 0.87500  0.62500  0.42500  Biso   1.000  Al
  Al6766   1.0000 0.87500  0.67500  0.40000  Biso   1.000  Al
  Al6767   1.0000 0.82500  0.62500  0.45000  Biso   1.000  Al
  Al6768   1.0000 0.82500  0.67500  0.47500  Biso   1.000  Al
  Al6769   1.0000 0.87500  0.62500  0.47500  Biso   1.000  Al
  Al6770   1.0000 0.87500  0.67500  0.45000  Biso   1.000  Al
  Al6771   1.0000 0.82500  0.62500  0.50000  Biso   1.000  Al
  Al6772   1.0000 0.82500  0.67500  0.52500  Biso   1.000  Al
  Al6773   1.0000 0.87500  0.62500  0.52500  Biso   1.000  Al
  Al6774   1.0000 0.87500  0.67500  0.50000  Biso   1.000  Al
  Al6775   1.0000 0.82500  0.62500  0.55000  Biso   1.000  Al
  Al6776   1.0000 0.82500  0.67500  0.57500  Biso   1.000  Al
  Al6777   1.0000 0.87500  0.62500  0.57500  Biso   1.000  Al
  Al6778   1.0000 0.87500  0.67500  0.55000  Biso   1.000  Al
  Al6779   1.0000 0.82500  0.62500  0.60000  Biso   1.000  Al
  Al6780   1.0000 0.82500  0.67500  0.62500  Biso   1.000  Al
  Al6781   1.0000 0.87500  0.62500  0.62500  Biso   1.000  Al
  Al6782   1.0000 0.87500  0.67500  0.60000  Biso   1.000  Al
  Al6783   1.0000 0.82500  0.62500  0.65000  Biso   1.000  Al
  Al6784   1.0000 0.82500  0.67500  0.67500  Biso   1.000  Al
  Al6785   1.0000 0.87500  0.62500  0.67500  Biso   1.000  Al
  Al6786   1.0000 0.87500  0.67500  0.65000  Biso   1.000  Al
  Al6787   1.0000 0.82500  0.62500  0.70000  Biso   1.000  Al
  Al6788   1.0000 0.82500  0.67500  0.72500  Biso   1.000  Al
  Al6789   1.0000 0.87500  0.62500  0.72500  Biso   1.000  Al
  Al6790   1.0000 0.87500  0.67500  0.70000  Biso   1.000  Al
  Al6791   1.0000 0.82500  0.62500  0.75000  Biso   1.000  Al
  Al6792   1.0000 0.82500  0.67500  0.77500  Biso   1.000  Al
  Al6793   1.0000 0.87500  0.62500  0.77500  Biso   1.000  Al
  Al6794   1.0000 0.87500  0.67500  0.75000  Biso   1.000  Al
  Al6795   1.0000 0.82500  0.62500  0.80000  Biso   1.000  Al
  Al6796   1.0000 0.82500  0.67500  0.82500  Biso   1.000  Al
  Al6797   1.0000 0.87500  0.62500  0.82500  Biso   1.000  Al
  Al6798   1.0000 0.87500  0.67500  0.80000  Biso   1.000  Al
  Al6799   1.0000 0.82500  0.62500  0.85000  Biso   1.000  Al
  Al6800   1.0000 0.82500  0.67500  0.87500  Biso   1.000  Al
  Al6801   1.0000 0.87500  0.62500  0.87500  Biso   1.000  Al
  Al6802   1.0000 0.87500  0.67500  0.85000  Biso   1.000  Al
  Al6803   1.0000 0.82500  0.62500  0.90000  Biso   1.000  Al
  Al6804   1.0000 0.82500  0.67500  0.92500  Biso   1.000  Al
  Al6805   1.0000 0.87500  0.62500  0.92500  Biso   1.000  Al
  Al6806   1.0000 0.87500  0.67500  0.90000  Biso   1.000  Al
  Al6807   1.0000 0.82500  0.62500  0.95000  Biso   1.000  Al
  Al6808   1.0000 0.82500  0.67500  0.97500  Biso   1.000  Al
  Al6809   1.0000 0.87500  0.62500  0.97500  Biso   1.000  Al
  Al6810   1.0000 0.87500  0.67500  0.95000  Biso   1.000  Al
  Al6811   1.0000 0.82500  0.72500  0.00000  Biso   1.000  Al
  Al6812   1.0000 0.82500  0.77500  0.02500  Biso   1.000  Al
  Al6813   1.0000 0.87500  0.72500  0.02500  Biso   1.000  Al
  Al6814   1.0000 0.87500  0.77500  0.00000  Biso   1.000  Al
  Al6815   1.0000 0.82500  0.72500  0.05000  Biso   1.000  Al
  Al6816   1.0000 0.82500  0.77500  0.07500  Biso   1.000  Al
  Al6817   1.0000 0.87500  0.72500  0.07500  Biso   1.000  Al
  Al6818   1.0000 0.87500  0.77500  0.05000  Biso   1.000  Al
  Al6819   1.0000 0.82500  0.72500  0.10000  Biso   1.000  Al
  Al6820   1.0000 0.82500  0.77500  0.12500  Biso   1.000  Al
  Al6821   1.0000 0.87500  0.72500  0.12500  Biso   1.000  Al
  Al6822   1.0000 0.87500  0.77500  0.10000  Biso   1.000  Al
  Al6823   1.0000 0.82500  0.72500  0.15000  Biso   1.000  Al
  Al6824   1.0000 0.82500  0.77500  0.17500  Biso   1.000  Al
  Al6825   1.0000 0.87500  0.72500  0.17500  Biso   1.000  Al
  Al6826   1.0000 0.87500  0.77500  0.15000  Biso   1.000  Al
  Al6827   1.0000 0.82500  0.72500  0.20000  Biso   1.000  Al
  Al6828   1.0000 0.82500  0.77500  0.22500  Biso   1.000  Al
  Al6829   1.0000 0.87500  0.72500  0.22500  Biso   1.000  Al
  Al6830   1.0000 0.87500  0.77500  0.20000  Biso   1.000  Al
  Al6831   1.0000 0.82500  0.72500  0.25000  Biso   1.000  Al
  Al6832   1.0000 0.82500  0.77500  0.27500  Biso   1.000  Al
  Al6833   1.0000 0.87500  0.72500  0.27500  Biso   1.000  Al
  Al6834   1.0000 0.87500  0.77500  0.25000  Biso   1.000  Al
  Al6835   1.0000 0.82500  0.72500  0.30000  Biso   1.000  Al
  Al6836   1.0000 0.82500  0.77500  0.32500  Biso   1.000  Al
  Al6837   1.0000 0.87500  0.72500  0.32500  Biso   1.000  Al
  Al6838   1.0000 0.87500  0.77500  0.30000  Biso   1.000  Al
  Al6839   1.0000 0.82500  0.72500  0.35000  Biso   1.000  Al
  Al6840   1.0000 0.82500  0.77500  0.37500  Biso   1.000  Al
  Al6841   1.0000 0.87500  0.72500  0.37500  Biso   1.000  Al
  Al6842   1.0000 0.87500  0.77500  0.35000  Biso   1.000  Al
  Al6843   1.0000 0.82500  0.72500  0.40000  Biso   1.000  Al
  Al6844   1.0000 0.82500  0.77500  0.42500  Biso   1.000  Al
  Al6845   1.0000 0.87500  0.72500  0.42500  Biso   1.000  Al
  Al6846   1.0000 0.87500  0.77500  0.40000  Biso   1.000  Al
  Al6847   1.0000 0.82500  0.72500  0.45000  Biso   1.000  Al
  Al6848   1.0000 0.82500  0.77500  0.47500  Biso   1.000  Al
  Al6849   1.0000 0.87500  0.72500  0.47500  Biso   1.000  Al
  Al6850   1.0000 0.87500  0.77500  0.45000  Biso   1.000  Al
  Al6851   1.0000 0.82500  0.72500  0.50000  Biso   1.000  Al
  Al6852   1.0000 0.82500  0.77500  0.52500  Biso   1.000  Al
  Al6853   1.0000 0.87500  0.72500  0.52500  Biso   1.000  Al
  Al6854   1.0000 0.87500  0.77500  0.50000  Biso   1.000  Al
  Al6855   1.0000 0.82500  0.72500  0.55000  Biso   1.000  Al
  Al6856   1.0000 0.82500  0.77500  0.57500  Biso   1.000  Al
  Al6857   1.0000 0.87500  0.72500  0.57500  Biso   1.000  Al
  Al6858   1.0000 0.87500  0.77500  0.55000  Biso   1.000  Al
  Al6859   1.0000 0.82500  0.72500  0.60000  Biso   1.000  Al
  Al6860   1.0000 0.82500  0.77500  0.62500  Biso   1.000  Al
  Al6861   1.0000 0.87500  0.72500  0.62500  Biso   1.000  Al
  Al6862   1.0000 0.87500  0.77500  0.60000  Biso   1.000  Al
  Al6863   1.0000 0.82500  0.72500  0.65000  Biso   1.000  Al
  Al6864   1.0000 0.82500  0.77500  0.67500  Biso   1.000  Al
  Al6865   1.0000 0.87500  0.72500  0.67500  Biso   1.000  Al
  Al6866   1.0000 0.87500  0.77500  0.65000  Biso   1.000  Al
  Al6867   1.0000 0.82500  0.72500  0.70000  Biso   1.000  Al
  Al6868   1.0000 0.82500  0.77500  0.72500  Biso   1.000  Al
  Al6869   1.0000 0.87500  0.72500  0.72500  Biso   1.000  Al
  Al6870   1.0000 0.87500  0.77500  0.70000  Biso   1.000  Al
  Al6871   1.0000 0.82500  0.72500  0.75000  Biso   1.000  Al
  Al6872   1.0000 0.82500  0.77500  0.77500  Biso   1.000  Al
  Al6873   1.0000 0.87500  0.72500  0.77500  Biso   1.000  Al
  Al6874   1.0000 0.87500  0.77500  0.75000  Biso   1.000  Al
  Al6875   1.0000 0.82500  0.72500  0.80000  Biso   1.000  Al
  Al6876   1.0000 0.82500  0.77500  0.82500  Biso   1.000  Al
  Al6877   1.0000 0.87500  0.72500  0.82500  Biso   1.000  Al
  Al6878   1.0000 0.87500  0.77500  0.80000  Biso   1.000  Al
  Al6879   1.0000 0.82500  0.72500  0.85000  Biso   1.000  Al
  Al6880   1.0000 0.82500  0.77500  0.87500  Biso   1.000  Al
  Al6881   1.0000 0.87500  0.72500  0.87500  Biso   1.000  Al
  Al6882   1.0000 0.87500  0.77500  0.85000  Biso   1.000  Al
  Al6883   1.0000 0.82500  0.72500  0.90000  Biso   1.000  Al
  Al6884   1.0000 0.82500  0.77500  0.92500  Biso   1.000  Al
  Al6885   1.0000 0.87500  0.72500  0.92500  Biso   1.000  Al
  Al6886   1.0000 0.87500  0.77500  0.90000  Biso   1.000  Al
  Al6887   1.0000 0.82500  0.72500  0.95000  Biso   1.000  Al
  Al6888   1.0000 0.82500  0.77500  0.97500  Biso   1.000  Al
  Al6889   1.0000 0.87500  0.72500  0.97500  Biso   1.000  Al
  Al6890   1.0000 0.87500  0.77500  0.95000  Biso   1.000  Al
  Al6891   1.0000 0.82500  0.82500  0.00000  Biso   1.000  Al
  Al6892   1.0000 0.82500  0.87500  0.02500  Biso   1.000  Al
  Al6893   1.0000 0.87500  0.82500  0.02500  Biso   1.000  Al
  Al6894   1.0000 0.87500  0.87500  0.00000  Biso   1.000  Al
  Al6895   1.0000 0.82500  0.82500  0.05000  Biso   1.000  Al
  Al6896   1.0000 0.82500  0.87500  0.07500  Biso   1.000  Al
  Al6897   1.0000 0.87500  0.82500  0.07500  Biso   1.000  Al
  Al6898   1.0000 0.87500  0.87500  0.05000  Biso   1.000  Al
  Al6899   1.0000 0.82500  0.82500  0.10000  Biso   1.000  Al
  Al6900   1.0000 0.82500  0.87500  0.12500  Biso   1.000  Al
  Al6901   1.0000 0.87500  0.82500  0.12500  Biso   1.000  Al
  Al6902   1.0000 0.87500  0.87500  0.10000  Biso   1.000  Al
  Al6903   1.0000 0.82500  0.82500  0.15000  Biso   1.000  Al
  Al6904   1.0000 0.82500  0.87500  0.17500  Biso   1.000  Al
  Al6905   1.0000 0.87500  0.82500  0.17500  Biso   1.000  Al
  Al6906   1.0000 0.87500  0.87500  0.15000  Biso   1.000  Al
  Al6907   1.0000 0.82500  0.82500  0.20000  Biso   1.000  Al
  Al6908   1.0000 0.82500  0.87500  0.22500  Biso   1.000  Al
  Al6909   1.0000 0.87500  0.82500  0.22500  Biso   1.000  Al
  Al6910   1.0000 0.87500  0.87500  0.20000  Biso   1.000  Al
  Al6911   1.0000 0.82500  0.82500  0.25000  Biso   1.000  Al
  Al6912   1.0000 0.82500  0.87500  0.27500  Biso   1.000  Al
  Al6913   1.0000 0.87500  0.82500  0.27500  Biso   1.000  Al
  Al6914   1.0000 0.87500  0.87500  0.25000  Biso   1.000  Al
  Al6915   1.0000 0.82500  0.82500  0.30000  Biso   1.000  Al
  Al6916   1.0000 0.82500  0.87500  0.32500  Biso   1.000  Al
  Al6917   1.0000 0.87500  0.82500  0.32500  Biso   1.000  Al
  Al6918   1.0000 0.87500  0.87500  0.30000  Biso   1.000  Al
  Al6919   1.0000 0.82500  0.82500  0.35000  Biso   1.000  Al
  Al6920   1.0000 0.82500  0.87500  0.37500  Biso   1.000  Al
  Al6921   1.0000 0.87500  0.82500  0.37500  Biso   1.000  Al
  Al6922   1.0000 0.87500  0.87500  0.35000  Biso   1.000  Al
  Al6923   1.0000 0.82500  0.82500  0.40000  Biso   1.000  Al
  Al6924   1.0000 0.82500  0.87500  0.42500  Biso   1.000  Al
  Al6925   1.0000 0.87500  0.82500  0.42500  Biso   1.000  Al
  Al6926   1.0000 0.87500  0.87500  0.40000  Biso   1.000  Al
  Al6927   1.0000 0.82500  0.82500  0.45000  Biso   1.000  Al
  Al6928   1.0000 0.82500  0.87500  0.47500  Biso   1.000  Al
  Al6929   1.0000 0.87500  0.82500  0.47500  Biso   1.000  Al
  Al6930   1.0000 0.87500  0.87500  0.45000  Biso   1.000  Al
  Al6931   1.0000 0.82500  0.82500  0.50000  Biso   1.000  Al
  Al6932   1.0000 0.82500  0.87500  0.52500  Biso   1.000  Al
  Al6933   1.0000 0.87500  0.82500  0.52500  Biso   1.000  Al
  Al6934   1.0000 0.87500  0.87500  0.50000  Biso   1.000  Al
  Al6935   1.0000 0.82500  0.82500  0.55000  Biso   1.000  Al
  Al6936   1.0000 0.82500  0.87500  0.57500  Biso   1.000  Al
  Al6937   1.0000 0.87500  0.82500  0.57500  Biso   1.000  Al
  Al6938   1.0000 0.87500  0.87500  0.55000  Biso   1.000  Al
  Al6939   1.0000 0.82500  0.82500  0.60000  Biso   1.000  Al
  Al6940   1.0000 0.82500  0.87500  0.62500  Biso   1.000  Al
  Al6941   1.0000 0.87500  0.82500  0.62500  Biso   1.000  Al
  Al6942   1.0000 0.87500  0.87500  0.60000  Biso   1.000  Al
  Al6943   1.0000 0.82500  0.82500  0.65000  Biso   1.000  Al
  Al6944   1.0000 0.82500  0.87500  0.67500  Biso   1.000  Al
  Al6945   1.0000 0.87500  0.82500  0.67500  Biso   1.000  Al
  Al6946   1.0000 0.87500  0.87500  0.65000  Biso   1.000  Al
  Al6947   1.0000 0.82500  0.82500  0.70000  Biso   1.000  Al
  Al6948   1.0000 0.82500  0.87500  0.72500  Biso   1.000  Al
  Al6949   1.0000 0.87500  0.82500  0.72500  Biso   1.000  Al
  Al6950   1.0000 0.87500  0.87500  0.70000  Biso   1.000  Al
  Al6951   1.0000 0.82500  0.82500  0.75000  Biso   1.000  Al
  Al6952   1.0000 0.82500  0.87500  0.77500  Biso   1.000  Al
  Al6953   1.0000 0.87500  0.82500  0.77500  Biso   1.000  Al
  Al6954   1.0000 0.87500  0.87500  0.75000  Biso   1.000  Al
  Al6955   1.0000 0.82500  0.82500  0.80000  Biso   1.000  Al
  Al6956   1.0000 0.82500  0.87500  0.82500  Biso   1.000  Al
  Al6957   1.0000 0.87500  0.82500  0.82500  Biso   1.000  Al
  Al6958   1.0000 0.87500  0.87500  0.80000  Biso   1.000  Al
  Al6959   1.0000 0.82500  0.82500  0.85000  Biso   1.000  Al
  Al6960   1.0000 0.82500  0.87500  0.87500  Biso   1.000  Al
  Al6961   1.0000 0.87500  0.82500  0.87500  Biso   1.000  Al
  Al6962   1.0000 0.87500  0.87500  0.85000  Biso   1.000  Al
  Al6963   1.0000 0.82500  0.82500  0.90000  Biso   1.000  Al
  Al6964   1.0000 0.82500  0.87500  0.92500  Biso   1.000  Al
  Al6965   1.0000 0.87500  0.82500  0.92500  Biso   1.000  Al
  Al6966   1.0000 0.87500  0.87500  0.90000  Biso   1.000  Al
  Al6967   1.0000 0.82500  0.82500  0.95000  Biso   1.000  Al
  Al6968   1.0000 0.82500  0.87500  0.97500  Biso   1.000  Al
  Al6969   1.0000 0.87500  0.82500  0.97500  Biso   1.000  Al
  Al6970   1.0000 0.87500  0.87500  0.95000  Biso   1.000  Al
  Al6971   1.0000 0.82500  0.92500  0.00000  Biso   1.000  Al
  Al6972   1.0000 0.82500  0.97500  0.02500  Biso   1.000  Al
  Al6973   1.0000 0.87500  0.92500  0.02500  Biso   1.000  Al
  Al6974   1.0000 0.87500  0.97500  0.00000  Biso   1.000  Al
  Al6975   1.0000 0.82500  0.92500  0.05000  Biso   1.000  Al
  Al6976   1.0000 0.82500  0.97500  0.07500  Biso   1.000  Al
  Al6977   1.0000 0.87500  0.92500  0.07500  Biso   1.000  Al
  Al6978   1.0000 0.87500  0.97500  0.05000  Biso   1.000  Al
  Al6979   1.0000 0.82500  0.92500  0.10000  Biso   1.000  Al
  Al6980   1.0000 0.82500  0.97500  0.12500  Biso   1.000  Al
  Al6981   1.0000 0.87500  0.92500  0.12500  Biso   1.000  Al
  Al6982   1.0000 0.87500  0.97500  0.10000  Biso   1.000  Al
  Al6983   1.0000 0.82500  0.92500  0.15000  Biso   1.000  Al
  Al6984   1.0000 0.82500  0.97500  0.17500  Biso   1.000  Al
  Al6985   1.0000 0.87500  0.92500  0.17500  Biso   1.000  Al
  Al6986   1.0000 0.87500  0.97500  0.15000  Biso   1.000  Al
  Al6987   1.0000 0.82500  0.92500  0.20000  Biso   1.000  Al
  Al6988   1.0000 0.82500  0.97500  0.22500  Biso   1.000  Al
  Al6989   1.0000 0.87500  0.92500  0.22500  Biso   1.000  Al
  Al6990   1.0000 0.87500  0.97500  0.20000  Biso   1.000  Al
  Al6991   1.0000 0.82500  0.92500  0.25000  Biso   1.000  Al
  Al6992   1.0000 0.82500  0.97500  0.27500  Biso   1.000  Al
  Al6993   1.0000 0.87500  0.92500  0.27500  Biso   1.000  Al
  Al6994   1.0000 0.87500  0.97500  0.25000  Biso   1.000  Al
  Al6995   1.0000 0.82500  0.92500  0.30000  Biso   1.000  Al
  Al6996   1.0000 0.82500  0.97500  0.32500  Biso   1.000  Al
  Al6997   1.0000 0.87500  0.92500  0.32500  Biso   1.000  Al
  Al6998   1.0000 0.87500  0.97500  0.30000  Biso   1.000  Al
  Al6999   1.0000 0.82500  0.92500  0.35000  Biso   1.000  Al
  Al7000   1.0000 0.82500  0.97500  0.37500  Biso   1.000  Al
  Al7001   1.0000 0.87500  0.92500  0.37500  Biso   1.000  Al
  Al7002   1.0000 0.87500  0.97500  0.35000  Biso   1.000  Al
  Al7003   1.0000 0.82500  0.92500  0.40000  Biso   1.000  Al
  Al7004   1.0000 0.82500  0.97500  0.42500  Biso   1.000  Al
  Al7005   1.0000 0.87500  0.92500  0.42500  Biso   1.000  Al
  Al7006   1.0000 0.87500  0.97500  0.40000  Biso   1.000  Al
  Al7007   1.0000 0.82500  0.92500  0.45000  Biso   1.000  Al
  Al7008   1.0000 0.82500  0.97500  0.47500  Biso   1.000  Al
  Al7009   1.0000 0.87500  0.92500  0.47500  Biso   1.000  Al
  Al7010   1.0000 0.87500  0.97500  0.45000  Biso   1.000  Al
  Al7011   1.0000 0.82500  0.92500  0.50000  Biso   1.000  Al
  Al7012   1.0000 0.82500  0.97500  0.52500  Biso   1.000  Al
  Al7013   1.0000 0.87500  0.92500  0.52500  Biso   1.000  Al
  Al7014   1.0000 0.87500  0.97500  0.50000  Biso   1.000  Al
  Al7015   1.0000 0.82500  0.92500  0.55000  Biso   1.000  Al
  Al7016   1.0000 0.82500  0.97500  0.57500  Biso   1.000  Al
  Al7017   1.0000 0.87500  0.92500  0.57500  Biso   1.000  Al
  Al7018   1.0000 0.87500  0.97500  0.55000  Biso   1.000  Al
  Al7019   1.0000 0.82500  0.92500  0.60000  Biso   1.000  Al
  Al7020   1.0000 0.82500  0.97500  0.62500  Biso   1.000  Al
  Al7021   1.0000 0.87500  0.92500  0.62500  Biso   1.000  Al
  Al7022   1.0000 0.87500  0.97500  0.60000  Biso   1.000  Al
  Al7023   1.0000 0.82500  0.92500  0.65000  Biso   1.000  Al
  Al7024   1.0000 0.82500  0.97500  0.67500  Biso   1.000  Al
  Al7025   1.0000 0.87500  0.92500  0.67500  Biso   1.000  Al
  Al7026   1.0000 0.87500  0.97500  0.65000  Biso   1.000  Al
  Al7027   1.0000 0.82500  0.92500  0.70000  Biso   1.000  Al
  Al7028   1.0000 0.82500  0.97500  0.72500  Biso   1.000  Al
  Al7029   1.0000 0.87500  0.92500  0.72500  Biso   1.000  Al
  Al7030   1.0000 0.87500  0.97500  0.70000  Biso   1.000  Al
  Al7031   1.0000 0.82500  0.92500  0.75000  Biso   1.000  Al
  Al7032   1.0000 0.82500  0.97500  0.77500  Biso   1.000  Al
  Al7033   1.0000 0.87500  0.92500  0.77500  Biso   1.000  Al
  Al7034   1.0000 0.87500  0.97500  0.75000  Biso   1.000  Al
  Al7035   1.0000 0.82500  0.92500  0.80000  Biso   1.000  Al
  Al7036   1.0000 0.82500  0.97500  0.82500  Biso   1.000  Al
  Al7037   1.0000 0.87500  0.92500  0.82500  Biso   1.000  Al
  Al7038   1.0000 0.87500  0.97500  0.80000  Biso   1.000  Al
  Al7039   1.0000 0.82500  0.92500  0.85000  Biso   1.000  Al
  Al7040   1.0000 0.82500  0.97500  0.87500  Biso   1.000  Al
  Al7041   1.0000 0.87500  0.92500  0.87500  Biso   1.000  Al
  Al7042   1.0000 0.87500  0.97500  0.85000  Biso   1.000  Al
  Al7043   1.0000 0.82500  0.92500  0.90000  Biso   1.000  Al
  Al7044   1.0000 0.82500  0.97500  0.92500  Biso   1.000  Al
  Al7045   1.0000 0.87500  0.92500  0.92500  Biso   1.000  Al
  Al7046   1.0000 0.87500  0.97500  0.90000  Biso   1.000  Al
  Al7047   1.0000 0.82500  0.92500  0.95000  Biso   1.000  Al
  Al7048   1.0000 0.82500  0.97500  0.97500  Biso   1.000  Al
  Al7049   1.0000 0.87500  0.92500  0.97500  Biso   1.000  Al
  Al7050   1.0000 0.87500  0.97500  0.95000  Biso   1.000  Al
  Al7051   1.0000 0.92500  0.02500  0.00000  Biso   1.000  Al
  Al7052   1.0000 0.92500  0.07500  0.02500  Biso   1.000  Al
  Al7053   1.0000 0.97500  0.02500  0.02500  Biso   1.000  Al
  Al7054   1.0000 0.97500  0.07500  0.00000  Biso   1.000  Al
  Al7055   1.0000 0.92500  0.02500  0.05000  Biso   1.000  Al
  Al7056   1.0000 0.92500  0.07500  0.07500  Biso   1.000  Al
  Al7057   1.0000 0.97500  0.02500  0.07500  Biso   1.000  Al
  Al7058   1.0000 0.97500  0.07500  0.05000  Biso   1.000  Al
  Al7059   1.0000 0.92500  0.02500  0.10000  Biso   1.000  Al
  Al7060   1.0000 0.92500  0.07500  0.12500  Biso   1.000  Al
  Al7061   1.0000 0.97500  0.02500  0.12500  Biso   1.000  Al
  Al7062   1.0000 0.97500  0.07500  0.10000  Biso   1.000  Al
  Al7063   1.0000 0.92500  0.02500  0.15000  Biso   1.000  Al
  Al7064   1.0000 0.92500  0.07500  0.17500  Biso   1.000  Al
  Al7065   1.0000 0.97500  0.02500  0.17500  Biso   1.000  Al
  Al7066   1.0000 0.97500  0.07500  0.15000  Biso   1.000  Al
  Al7067   1.0000 0.92500  0.02500  0.20000  Biso   1.000  Al
  Al7068   1.0000 0.92500  0.07500  0.22500  Biso   1.000  Al
  Al7069   1.0000 0.97500  0.02500  0.22500  Biso   1.000  Al
  Al7070   1.0000 0.97500  0.07500  0.20000  Biso   1.000  Al
  Al7071   1.0000 0.92500  0.02500  0.25000  Biso   1.000  Al
  Al7072   1.0000 0.92500  0.07500  0.27500  Biso   1.000  Al
  Al7073   1.0000 0.97500  0.02500  0.27500  Biso   1.000  Al
  Al7074   1.0000 0.97500  0.07500  0.25000  Biso   1.000  Al
  Al7075   1.0000 0.92500  0.02500  0.30000  Biso   1.000  Al
  Al7076   1.0000 0.92500  0.07500  0.32500  Biso   1.000  Al
  Al7077   1.0000 0.97500  0.02500  0.32500  Biso   1.000  Al
  Al7078   1.0000 0.97500  0.07500  0.30000  Biso   1.000  Al
  Al7079   1.0000 0.92500  0.02500  0.35000  Biso   1.000  Al
  Al7080   1.0000 0.92500  0.07500  0.37500  Biso   1.000  Al
  Al7081   1.0000 0.97500  0.02500  0.37500  Biso   1.000  Al
  Al7082   1.0000 0.97500  0.07500  0.35000  Biso   1.000  Al
  Al7083   1.0000 0.92500  0.02500  0.40000  Biso   1.000  Al
  Al7084   1.0000 0.92500  0.07500  0.42500  Biso   1.000  Al
  Al7085   1.0000 0.97500  0.02500  0.42500  Biso   1.000  Al
  Al7086   1.0000 0.97500  0.07500  0.40000  Biso   1.000  Al
  Al7087   1.0000 0.92500  0.02500  0.45000  Biso   1.000  Al
  Al7088   1.0000 0.92500  0.07500  0.47500  Biso   1.000  Al
  Al7089   1.0000 0.97500  0.02500  0.47500  Biso   1.000  Al
  Al7090   1.0000 0.97500  0.07500  0.45000  Biso   1.000  Al
  Al7091   1.0000 0.92500  0.02500  0.50000  Biso   1.000  Al
  Al7092   1.0000 0.92500  0.07500  0.52500  Biso   1.000  Al
  Al7093   1.0000 0.97500  0.02500  0.52500  Biso   1.000  Al
  Al7094   1.0000 0.97500  0.07500  0.50000  Biso   1.000  Al
  Al7095   1.0000 0.92500  0.02500  0.55000  Biso   1.000  Al
  Al7096   1.0000 0.92500  0.07500  0.57500  Biso   1.000  Al
  Al7097   1.0000 0.97500  0.02500  0.57500  Biso   1.000  Al
  Al7098   1.0000 0.97500  0.07500  0.55000  Biso   1.000  Al
  Al7099   1.0000 0.92500  0.02500  0.60000  Biso   1.000  Al
  Al7100   1.0000 0.92500  0.07500  0.62500  Biso   1.000  Al
  Al7101   1.0000 0.97500  0.02500  0.62500  Biso   1.000  Al
  Al7102   1.0000 0.97500  0.07500  0.60000  Biso   1.000  Al
  Al7103   1.0000 0.92500  0.02500  0.65000  Biso   1.000  Al
  Al7104   1.0000 0.92500  0.07500  0.67500  Biso   1.000  Al
  Al7105   1.0000 0.97500  0.02500  0.67500  Biso   1.000  Al
  Al7106   1.0000 0.97500  0.07500  0.65000  Biso   1.000  Al
  Al7107   1.0000 0.92500  0.02500  0.70000  Biso   1.000  Al
  Al7108   1.0000 0.92500  0.07500  0.72500  Biso   1.000  Al
  Al7109   1.0000 0.97500  0.02500  0.72500  Biso   1.000  Al
  Al7110   1.0000 0.97500  0.07500  0.70000  Biso   1.000  Al
  Al7111   1.0000 0.92500  0.02500  0.75000  Biso   1.000  Al
  Al7112   1.0000 0.92500  0.07500  0.77500  Biso   1.000  Al
  Al7113   1.0000 0.97500  0.02500  0.77500  Biso   1.000  Al
  Al7114   1.0000 0.97500  0.07500  0.75000  Biso   1.000  Al
  Al7115   1.0000 0.92500  0.02500  0.80000  Biso   1.000  Al
  Al7116   1.0000 0.92500  0.07500  0.82500  Biso   1.000  Al
  Al7117   1.0000 0.97500  0.02500  0.82500  Biso   1.000  Al
  Al7118   1.0000 0.97500  0.07500  0.80000  Biso   1.000  Al
  Al7119   1.0000 0.92500  0.02500  0.85000  Biso   1.000  Al
  Al7120   1.0000 0.92500  0.07500  0.87500  Biso   1.000  Al
  Al7121   1.0000 0.97500  0.02500  0.87500  Biso   1.000  Al
  Al7122   1.0000 0.97500  0.07500  0.85000  Biso   1.000  Al
  Al7123   1.0000 0.92500  0.02500  0.90000  Biso   1.000  Al
  Al7124   1.0000 0.92500  0.07500  0.92500  Biso   1.000  Al
  Al7125   1.0000 0.97500  0.02500  0.92500  Biso   1.000  Al
  Al7126   1.0000 0.97500  0.07500  0.90000  Biso   1.000  Al
  Al7127   1.0000 0.92500  0.02500  0.95000  Biso   1.000  Al
  Al7128   1.0000 0.92500  0.07500  0.97500  Biso   1.000  Al
  Al7129   1.0000 0.97500  0.02500  0.97500  Biso   1.000  Al
  Al7130   1.0000 0.97500  0.07500  0.95000  Biso   1.000  Al
  Al7131   1.0000 0.92500  0.12500  0.00000  Biso   1.000  Al
  Al7132   1.0000 0.92500  0.17500  0.02500  Biso   1.000  Al
  Al7133   1.0000 0.97500  0.12500  0.02500  Biso   1.000  Al
  Al7134   1.0000 0.97500  0.17500  0.00000  Biso   1.000  Al
  Al7135   1.0000 0.92500  0.12500  0.05000  Biso   1.000  Al
  Al7136   1.0000 0.92500  0.17500  0.07500  Biso   1.000  Al
  Al7137   1.0000 0.97500  0.12500  0.07500  Biso   1.000  Al
  Al7138   1.0000 0.97500  0.17500  0.05000  Biso   1.000  Al
  Al7139   1.0000 0.92500  0.12500  0.10000  Biso   1.000  Al
  Al7140   1.0000 0.92500  0.17500  0.12500  Biso   1.000  Al
  Al7141   1.0000 0.97500  0.12500  0.12500  Biso   1.000  Al
  Al7142   1.0000 0.97500  0.17500  0.10000  Biso   1.000  Al
  Al7143   1.0000 0.92500  0.12500  0.15000  Biso   1.000  Al
  Al7144   1.0000 0.92500  0.17500  0.17500  Biso   1.000  Al
  Al7145   1.0000 0.97500  0.12500  0.17500  Biso   1.000  Al
  Al7146   1.0000 0.97500  0.17500  0.15000  Biso   1.000  Al
  Al7147   1.0000 0.92500  0.12500  0.20000  Biso   1.000  Al
  Al7148   1.0000 0.92500  0.17500  0.22500  Biso   1.000  Al
  Al7149   1.0000 0.97500  0.12500  0.22500  Biso   1.000  Al
  Al7150   1.0000 0.97500  0.17500  0.20000  Biso   1.000  Al
  Al7151   1.0000 0.92500  0.12500  0.25000  Biso   1.000  Al
  Al7152   1.0000 0.92500  0.17500  0.27500  Biso   1.000  Al
  Al7153   1.0000 0.97500  0.12500  0.27500  Biso   1.000  Al
  Al7154   1.0000 0.97500  0.17500  0.25000  Biso   1.000  Al
  Al7155   1.0000 0.92500  0.12500  0.30000  Biso   1.000  Al
  Al7156   1.0000 0.92500  0.17500  0.32500  Biso   1.000  Al
  Al7157   1.0000 0.97500  0.12500  0.32500  Biso   1.000  Al
  Al7158   1.0000 0.97500  0.17500  0.30000  Biso   1.000  Al
  Al7159   1.0000 0.92500  0.12500  0.35000  Biso   1.000  Al
  Al7160   1.0000 0.92500  0.17500  0.37500  Biso   1.000  Al
  Al7161   1.0000 0.97500  0.12500  0.37500  Biso   1.000  Al
  Al7162   1.0000 0.97500  0.17500  0.35000  Biso   1.000  Al
  Al7163   1.0000 0.92500  0.12500  0.40000  Biso   1.000  Al
  Al7164   1.0000 0.92500  0.17500  0.42500  Biso   1.000  Al
  Al7165   1.0000 0.97500  0.12500  0.42500  Biso   1.000  Al
  Al7166   1.0000 0.97500  0.17500  0.40000  Biso   1.000  Al
  Al7167   1.0000 0.92500  0.12500  0.45000  Biso   1.000  Al
  Al7168   1.0000 0.92500  0.17500  0.47500  Biso   1.000  Al
  Al7169   1.0000 0.97500  0.12500  0.47500  Biso   1.000  Al
  Al7170   1.0000 0.97500  0.17500  0.45000  Biso   1.000  Al
  Al7171   1.0000 0.92500  0.12500  0.50000  Biso   1.000  Al
  Al7172   1.0000 0.92500  0.17500  0.52500  Biso   1.000  Al
  Al7173   1.0000 0.97500  0.12500  0.52500  Biso   1.000  Al
  Al7174   1.0000 0.97500  0.17500  0.50000  Biso   1.000  Al
  Al7175   1.0000 0.92500  0.12500  0.55000  Biso   1.000  Al
  Al7176   1.0000 0.92500  0.17500  0.57500  Biso   1.000  Al
  Al7177   1.0000 0.97500  0.12500  0.57500  Biso   1.000  Al
  Al7178   1.0000 0.97500  0.17500  0.55000  Biso   1.000  Al
  Al7179   1.0000 0.92500  0.12500  0.60000  Biso   1.000  Al
  Al7180   1.0000 0.92500  0.17500  0.62500  Biso   1.000  Al
  Al7181   1.0000 0.97500  0.12500  0.62500  Biso   1.000  Al
  Al7182   1.0000 0.97500  0.17500  0.60000  Biso   1.000  Al
  Al7183   1.0000 0.92500  0.12500  0.65000  Biso   1.000  Al
  Al7184   1.0000 0.92500  0.17500  0.67500  Biso   1.000  Al
  Al7185   1.0000 0.97500  0.12500  0.67500  Biso   1.000  Al
  Al7186   1.0000 0.97500  0.17500  0.65000  Biso   1.000  Al
  Al7187   1.0000 0.92500  0.12500  0.70000  Biso   1.000  Al
  Al7188   1.0000 0.92500  0.17500  0.72500  Biso   1.000  Al
  Al7189   1.0000 0.97500  0.12500  0.72500  Biso   1.000  Al
  Al7190   1.0000 0.97500  0.17500  0.70000  Biso   1.000  Al
  Al7191   1.0000 0.92500  0.12500  0.75000  Biso   1.000  Al
  Al7192   1.0000 0.92500  0.17500  0.77500  Biso   1.000  Al
  Al7193   1.0000 0.97500  0.12500  0.77500  Biso   1.000  Al
  Al7194   1.0000 0.97500  0.17500  0.75000  Biso   1.000  Al
  Al7195   1.0000 0.92500  0.12500  0.80000  Biso   1.000  Al
  Al7196   1.0000 0.92500  0.17500  0.82500  Biso   1.000  Al
  Al7197   1.0000 0.97500  0.12500  0.82500  Biso   1.000  Al
  Al7198   1.0000 0.97500  0.17500  0.80000  Biso   1.000  Al
  Al7199   1.0000 0.92500  0.12500  0.85000  Biso   1.000  Al
  Al7200   1.0000 0.92500  0.17500  0.87500  Biso   1.000  Al
  Al7201   1.0000 0.97500  0.12500  0.87500  Biso   1.000  Al
  Al7202   1.0000 0.97500  0.17500  0.85000  Biso   1.000  Al
  Al7203   1.0000 0.92500  0.12500  0.90000  Biso   1.000  Al
  Al7204   1.0000 0.92500  0.17500  0.92500  Biso   1.000  Al
  Al7205   1.0000 0.97500  0.12500  0.92500  Biso   1.000  Al
  Al7206   1.0000 0.97500  0.17500  0.90000  Biso   1.000  Al
  Al7207   1.0000 0.92500  0.12500  0.95000  Biso   1.000  Al
  Al7208   1.0000 0.92500  0.17500  0.97500  Biso   1.000  Al
  Al7209   1.0000 0.97500  0.12500  0.97500  Biso   1.000  Al
  Al7210   1.0000 0.97500  0.17500  0.95000  Biso   1.000  Al
  Al7211   1.0000 0.92500  0.22500  0.00000  Biso   1.000  Al
  Al7212   1.0000 0.92500  0.27500  0.02500  Biso   1.000  Al
  Al7213   1.0000 0.97500  0.22500  0.02500  Biso   1.000  Al
  Al7214   1.0000 0.97500  0.27500  0.00000  Biso   1.000  Al
  Al7215   1.0000 0.92500  0.22500  0.05000  Biso   1.000  Al
  Al7216   1.0000 0.92500  0.27500  0.07500  Biso   1.000  Al
  Al7217   1.0000 0.97500  0.22500  0.07500  Biso   1.000  Al
  Al7218   1.0000 0.97500  0.27500  0.05000  Biso   1.000  Al
  Al7219   1.0000 0.92500  0.22500  0.10000  Biso   1.000  Al
  Al7220   1.0000 0.92500  0.27500  0.12500  Biso   1.000  Al
  Al7221   1.0000 0.97500  0.22500  0.12500  Biso   1.000  Al
  Al7222   1.0000 0.97500  0.27500  0.10000  Biso   1.000  Al
  Al7223   1.0000 0.92500  0.22500  0.15000  Biso   1.000  Al
  Al7224   1.0000 0.92500  0.27500  0.17500  Biso   1.000  Al
  Al7225   1.0000 0.97500  0.22500  0.17500  Biso   1.000  Al
  Al7226   1.0000 0.97500  0.27500  0.15000  Biso   1.000  Al
  Al7227   1.0000 0.92500  0.22500  0.20000  Biso   1.000  Al
  Al7228   1.0000 0.92500  0.27500  0.22500  Biso   1.000  Al
  Al7229   1.0000 0.97500  0.22500  0.22500  Biso   1.000  Al
  Al7230   1.0000 0.97500  0.27500  0.20000  Biso   1.000  Al
  Al7231   1.0000 0.92500  0.22500  0.25000  Biso   1.000  Al
  Al7232   1.0000 0.92500  0.27500  0.27500  Biso   1.000  Al
  Al7233   1.0000 0.97500  0.22500  0.27500  Biso   1.000  Al
  Al7234   1.0000 0.97500  0.27500  0.25000  Biso   1.000  Al
  Al7235   1.0000 0.92500  0.22500  0.30000  Biso   1.000  Al
  Al7236   1.0000 0.92500  0.27500  0.32500  Biso   1.000  Al
  Al7237   1.0000 0.97500  0.22500  0.32500  Biso   1.000  Al
  Al7238   1.0000 0.97500  0.27500  0.30000  Biso   1.000  Al
  Al7239   1.0000 0.92500  0.22500  0.35000  Biso   1.000  Al
  Al7240   1.0000 0.92500  0.27500  0.37500  Biso   1.000  Al
  Al7241   1.0000 0.97500  0.22500  0.37500  Biso   1.000  Al
  Al7242   1.0000 0.97500  0.27500  0.35000  Biso   1.000  Al
  Al7243   1.0000 0.92500  0.22500  0.40000  Biso   1.000  Al
  Al7244   1.0000 0.92500  0.27500  0.42500  Biso   1.000  Al
  Al7245   1.0000 0.97500  0.22500  0.42500  Biso   1.000  Al
  Al7246   1.0000 0.97500  0.27500  0.40000  Biso   1.000  Al
  Al7247   1.0000 0.92500  0.22500  0.45000  Biso   1.000  Al
  Al7248   1.0000 0.92500  0.27500  0.47500  Biso   1.000  Al
  Al7249   1.0000 0.97500  0.22500  0.47500  Biso   1.000  Al
  Al7250   1.0000 0.97500  0.27500  0.45000  Biso   1.000  Al
  Al7251   1.0000 0.92500  0.22500  0.50000  Biso   1.000  Al
  Al7252   1.0000 0.92500  0.27500  0.52500  Biso   1.000  Al
  Al7253   1.0000 0.97500  0.22500  0.52500  Biso   1.000  Al
  Al7254   1.0000 0.97500  0.27500  0.50000  Biso   1.000  Al
  Al7255   1.0000 0.92500  0.22500  0.55000  Biso   1.000  Al
  Al7256   1.0000 0.92500  0.27500  0.57500  Biso   1.000  Al
  Al7257   1.0000 0.97500  0.22500  0.57500  Biso   1.000  Al
  Al7258   1.0000 0.97500  0.27500  0.55000  Biso   1.000  Al
  Al7259   1.0000 0.92500  0.22500  0.60000  Biso   1.000  Al
  Al7260   1.0000 0.92500  0.27500  0.62500  Biso   1.000  Al
  Al7261   1.0000 0.97500  0.22500  0.62500  Biso   1.000  Al
  Al7262   1.0000 0.97500  0.27500  0.60000  Biso   1.000  Al
  Al7263   1.0000 0.92500  0.22500  0.65000  Biso   1.000  Al
  Al7264   1.0000 0.92500  0.27500  0.67500  Biso   1.000  Al
  Al7265   1.0000 0.97500  0.22500  0.67500  Biso   1.000  Al
  Al7266   1.0000 0.97500  0.27500  0.65000  Biso   1.000  Al
  Al7267   1.0000 0.92500  0.22500  0.70000  Biso   1.000  Al
  Al7268   1.0000 0.92500  0.27500  0.72500  Biso   1.000  Al
  Al7269   1.0000 0.97500  0.22500  0.72500  Biso   1.000  Al
  Al7270   1.0000 0.97500  0.27500  0.70000  Biso   1.000  Al
  Al7271   1.0000 0.92500  0.22500  0.75000  Biso   1.000  Al
  Al7272   1.0000 0.92500  0.27500  0.77500  Biso   1.000  Al
  Al7273   1.0000 0.97500  0.22500  0.77500  Biso   1.000  Al
  Al7274   1.0000 0.97500  0.27500  0.75000  Biso   1.000  Al
  Al7275   1.0000 0.92500  0.22500  0.80000  Biso   1.000  Al
  Al7276   1.0000 0.92500  0.27500  0.82500  Biso   1.000  Al
  Al7277   1.0000 0.97500  0.22500  0.82500  Biso   1.000  Al
  Al7278   1.0000 0.97500  0.27500  0.80000  Biso   1.000  Al
  Al7279   1.0000 0.92500  0.22500  0.85000  Biso   1.000  Al
  Al7280   1.0000 0.92500  0.27500  0.87500  Biso   1.000  Al
  Al7281   1.0000 0.97500  0.22500  0.87500  Biso   1.000  Al
  Al7282   1.0000 0.97500  0.27500  0.85000  Biso   1.000  Al
  Al7283   1.0000 0.92500  0.22500  0.90000  Biso   1.000  Al
  Al7284   1.0000 0.92500  0.27500  0.92500  Biso   1.000  Al
  Al7285   1.0000 0.97500  0.22500  0.92500  Biso   1.000  Al
  Al7286   1.0000 0.97500  0.27500  0.90000  Biso   1.000  Al
  Al7287   1.0000 0.92500  0.22500  0.95000  Biso   1.000  Al
  Al7288   1.0000 0.92500  0.27500  0.97500  Biso   1.000  Al
  Al7289   1.0000 0.97500  0.22500  0.97500  Biso   1.000  Al
  Al7290   1.0000 0.97500  0.27500  0.95000  Biso   1.000  Al
  Al7291   1.0000 0.92500  0.32500  0.00000  Biso   1.000  Al
  Al7292   1.0000 0.92500  0.37500  0.02500  Biso   1.000  Al
  Al7293   1.0000 0.97500  0.32500  0.02500  Biso   1.000  Al
  Al7294   1.0000 0.97500  0.37500  0.00000  Biso   1.000  Al
  Al7295   1.0000 0.92500  0.32500  0.05000  Biso   1.000  Al
  Al7296   1.0000 0.92500  0.37500  0.07500  Biso   1.000  Al
  Al7297   1.0000 0.97500  0.32500  0.07500  Biso   1.000  Al
  Al7298   1.0000 0.97500  0.37500  0.05000  Biso   1.000  Al
  Al7299   1.0000 0.92500  0.32500  0.10000  Biso   1.000  Al
  Al7300   1.0000 0.92500  0.37500  0.12500  Biso   1.000  Al
  Al7301   1.0000 0.97500  0.32500  0.12500  Biso   1.000  Al
  Al7302   1.0000 0.97500  0.37500  0.10000  Biso   1.000  Al
  Al7303   1.0000 0.92500  0.32500  0.15000  Biso   1.000  Al
  Al7304   1.0000 0.92500  0.37500  0.17500  Biso   1.000  Al
  Al7305   1.0000 0.97500  0.32500  0.17500  Biso   1.000  Al
  Al7306   1.0000 0.97500  0.37500  0.15000  Biso   1.000  Al
  Al7307   1.0000 0.92500  0.32500  0.20000  Biso   1.000  Al
  Al7308   1.0000 0.92500  0.37500  0.22500  Biso   1.000  Al
  Al7309   1.0000 0.97500  0.32500  0.22500  Biso   1.000  Al
  Al7310   1.0000 0.97500  0.37500  0.20000  Biso   1.000  Al
  Al7311   1.0000 0.92500  0.32500  0.25000  Biso   1.000  Al
  Al7312   1.0000 0.92500  0.37500  0.27500  Biso   1.000  Al
  Al7313   1.0000 0.97500  0.32500  0.27500  Biso   1.000  Al
  Al7314   1.0000 0.97500  0.37500  0.25000  Biso   1.000  Al
  Al7315   1.0000 0.92500  0.32500  0.30000  Biso   1.000  Al
  Al7316   1.0000 0.92500  0.37500  0.32500  Biso   1.000  Al
  Al7317   1.0000 0.97500  0.32500  0.32500  Biso   1.000  Al
  Al7318   1.0000 0.97500  0.37500  0.30000  Biso   1.000  Al
  Al7319   1.0000 0.92500  0.32500  0.35000  Biso   1.000  Al
  Al7320   1.0000 0.92500  0.37500  0.37500  Biso   1.000  Al
  Al7321   1.0000 0.97500  0.32500  0.37500  Biso   1.000  Al
  Al7322   1.0000 0.97500  0.37500  0.35000  Biso   1.000  Al
  Al7323   1.0000 0.92500  0.32500  0.40000  Biso   1.000  Al
  Al7324   1.0000 0.92500  0.37500  0.42500  Biso   1.000  Al
  Al7325   1.0000 0.97500  0.32500  0.42500  Biso   1.000  Al
  Al7326   1.0000 0.97500  0.37500  0.40000  Biso   1.000  Al
  Al7327   1.0000 0.92500  0.32500  0.45000  Biso   1.000  Al
  Al7328   1.0000 0.92500  0.37500  0.47500  Biso   1.000  Al
  Al7329   1.0000 0.97500  0.32500  0.47500  Biso   1.000  Al
  Al7330   1.0000 0.97500  0.37500  0.45000  Biso   1.000  Al
  Al7331   1.0000 0.92500  0.32500  0.50000  Biso   1.000  Al
  Al7332   1.0000 0.92500  0.37500  0.52500  Biso   1.000  Al
  Al7333   1.0000 0.97500  0.32500  0.52500  Biso   1.000  Al
  Al7334   1.0000 0.97500  0.37500  0.50000  Biso   1.000  Al
  Al7335   1.0000 0.92500  0.32500  0.55000  Biso   1.000  Al
  Al7336   1.0000 0.92500  0.37500  0.57500  Biso   1.000  Al
  Al7337   1.0000 0.97500  0.32500  0.57500  Biso   1.000  Al
  Al7338   1.0000 0.97500  0.37500  0.55000  Biso   1.000  Al
  Al7339   1.0000 0.92500  0.32500  0.60000  Biso   1.000  Al
  Al7340   1.0000 0.92500  0.37500  0.62500  Biso   1.000  Al
  Al7341   1.0000 0.97500  0.32500  0.62500  Biso   1.000  Al
  Al7342   1.0000 0.97500  0.37500  0.60000  Biso   1.000  Al
  Al7343   1.0000 0.92500  0.32500  0.65000  Biso   1.000  Al
  Al7344   1.0000 0.92500  0.37500  0.67500  Biso   1.000  Al
  Al7345   1.0000 0.97500  0.32500  0.67500  Biso   1.000  Al
  Al7346   1.0000 0.97500  0.37500  0.65000  Biso   1.000  Al
  Al7347   1.0000 0.92500  0.32500  0.70000  Biso   1.000  Al
  Al7348   1.0000 0.92500  0.37500  0.72500  Biso   1.000  Al
  Al7349   1.0000 0.97500  0.32500  0.72500  Biso   1.000  Al
  Al7350   1.0000 0.97500  0.37500  0.70000  Biso   1.000  Al
  Al7351   1.0000 0.92500  0.32500  0.75000  Biso   1.000  Al
  Al7352   1.0000 0.92500  0.37500  0.77500  Biso   1.000  Al
  Al7353   1.0000 0.97500  0.32500  0.77500  Biso   1.000  Al
  Al7354   1.0000 0.97500  0.37500  0.75000  Biso   1.000  Al
  Al7355   1.0000 0.92500  0.32500  0.80000  Biso   1.000  Al
  Al7356   1.0000 0.92500  0.37500  0.82500  Biso   1.000  Al
  Al7357   1.0000 0.97500  0.32500  0.82500  Biso   1.000  Al
  Al7358   1.0000 0.97500  0.37500  0.80000  Biso   1.000  Al
  Al7359   1.0000 0.92500  0.32500  0.85000  Biso   1.000  Al
  Al7360   1.0000 0.92500  0.37500  0.87500  Biso   1.000  Al
  Al7361   1.0000 0.97500  0.32500  0.87500  Biso   1.000  Al
  Al7362   1.0000 0.97500  0.37500  0.85000  Biso   1.000  Al
  Al7363   1.0000 0.92500  0.32500  0.90000  Biso   1.000  Al
  Al7364   1.0000 0.92500  0.37500  0.92500  Biso   1.000  Al
  Al7365   1.0000 0.97500  0.32500  0.92500  Biso   1.000  Al
  Al7366   1.0000 0.97500  0.37500  0.90000  Biso   1.000  Al
  Al7367   1.0000 0.92500  0.32500  0.95000  Biso   1.000  Al
  Al7368   1.0000 0.92500  0.37500  0.97500  Biso   1.000  Al
  Al7369   1.0000 0.97500  0.32500  0.97500  Biso   1.000  Al
  Al7370   1.0000 0.97500  0.37500  0.95000  Biso   1.000  Al
  Al7371   1.0000 0.92500  0.42500  0.00000  Biso   1.000  Al
  Al7372   1.0000 0.92500  0.47500  0.02500  Biso   1.000  Al
  Al7373   1.0000 0.97500  0.42500  0.02500  Biso   1.000  Al
  Al7374   1.0000 0.97500  0.47500  0.00000  Biso   1.000  Al
  Al7375   1.0000 0.92500  0.42500  0.05000  Biso   1.000  Al
  Al7376   1.0000 0.92500  0.47500  0.07500  Biso   1.000  Al
  Al7377   1.0000 0.97500  0.42500  0.07500  Biso   1.000  Al
  Al7378   1.0000 0.97500  0.47500  0.05000  Biso   1.000  Al
  Al7379   1.0000 0.92500  0.42500  0.10000  Biso   1.000  Al
  Al7380   1.0000 0.92500  0.47500  0.12500  Biso   1.000  Al
  Al7381   1.0000 0.97500  0.42500  0.12500  Biso   1.000  Al
  Al7382   1.0000 0.97500  0.47500  0.10000  Biso   1.000  Al
  Al7383   1.0000 0.92500  0.42500  0.15000  Biso   1.000  Al
  Al7384   1.0000 0.92500  0.47500  0.17500  Biso   1.000  Al
  Al7385   1.0000 0.97500  0.42500  0.17500  Biso   1.000  Al
  Al7386   1.0000 0.97500  0.47500  0.15000  Biso   1.000  Al
  Al7387   1.0000 0.92500  0.42500  0.20000  Biso   1.000  Al
  Al7388   1.0000 0.92500  0.47500  0.22500  Biso   1.000  Al
  Al7389   1.0000 0.97500  0.42500  0.22500  Biso   1.000  Al
  Al7390   1.0000 0.97500  0.47500  0.20000  Biso   1.000  Al
  Al7391   1.0000 0.92500  0.42500  0.25000  Biso   1.000  Al
  Al7392   1.0000 0.92500  0.47500  0.27500  Biso   1.000  Al
  Al7393   1.0000 0.97500  0.42500  0.27500  Biso   1.000  Al
  Al7394   1.0000 0.97500  0.47500  0.25000  Biso   1.000  Al
  Al7395   1.0000 0.92500  0.42500  0.30000  Biso   1.000  Al
  Al7396   1.0000 0.92500  0.47500  0.32500  Biso   1.000  Al
  Al7397   1.0000 0.97500  0.42500  0.32500  Biso   1.000  Al
  Al7398   1.0000 0.97500  0.47500  0.30000  Biso   1.000  Al
  Al7399   1.0000 0.92500  0.42500  0.35000  Biso   1.000  Al
  Al7400   1.0000 0.92500  0.47500  0.37500  Biso   1.000  Al
  Al7401   1.0000 0.97500  0.42500  0.37500  Biso   1.000  Al
  Al7402   1.0000 0.97500  0.47500  0.35000  Biso   1.000  Al
  Al7403   1.0000 0.92500  0.42500  0.40000  Biso   1.000  Al
  Al7404   1.0000 0.92500  0.47500  0.42500  Biso   1.000  Al
  Al7405   1.0000 0.97500  0.42500  0.42500  Biso   1.000  Al
  Al7406   1.0000 0.97500  0.47500  0.40000  Biso   1.000  Al
  Al7407   1.0000 0.92500  0.42500  0.45000  Biso   1.000  Al
  Al7408   1.0000 0.92500  0.47500  0.47500  Biso   1.000  Al
  Al7409   1.0000 0.97500  0.42500  0.47500  Biso   1.000  Al
  Al7410   1.0000 0.97500  0.47500  0.45000  Biso   1.000  Al
  Al7411   1.0000 0.92500  0.42500  0.50000  Biso   1.000  Al
  Al7412   1.0000 0.92500  0.47500  0.52500  Biso   1.000  Al
  Al7413   1.0000 0.97500  0.42500  0.52500  Biso   1.000  Al
  Al7414   1.0000 0.97500  0.47500  0.50000  Biso   1.000  Al
  Al7415   1.0000 0.92500  0.42500  0.55000  Biso   1.000  Al
  Al7416   1.0000 0.92500  0.47500  0.57500  Biso   1.000  Al
  Al7417   1.0000 0.97500  0.42500  0.57500  Biso   1.000  Al
  Al7418   1.0000 0.97500  0.47500  0.55000  Biso   1.000  Al
  Al7419   1.0000 0.92500  0.42500  0.60000  Biso   1.000  Al
  Al7420   1.0000 0.92500  0.47500  0.62500  Biso   1.000  Al
  Al7421   1.0000 0.97500  0.42500  0.62500  Biso   1.000  Al
  Al7422   1.0000 0.97500  0.47500  0.60000  Biso   1.000  Al
  Al7423   1.0000 0.92500  0.42500  0.65000  Biso   1.000  Al
  Al7424   1.0000 0.92500  0.47500  0.67500  Biso   1.000  Al
  Al7425   1.0000 0.97500  0.42500  0.67500  Biso   1.000  Al
  Al7426   1.0000 0.97500  0.47500  0.65000  Biso   1.000  Al
  Al7427   1.0000 0.92500  0.42500  0.70000  Biso   1.000  Al
  Al7428   1.0000 0.92500  0.47500  0.72500  Biso   1.000  Al
  Al7429   1.0000 0.97500  0.42500  0.72500  Biso   1.000  Al
  Al7430   1.0000 0.97500  0.47500  0.70000  Biso   1.000  Al
  Al7431   1.0000 0.92500  0.42500  0.75000  Biso   1.000  Al
  Al7432   1.0000 0.92500  0.47500  0.77500  Biso   1.000  Al
  Al7433   1.0000 0.97500  0.42500  0.77500  Biso   1.000  Al
  Al7434   1.0000 0.97500  0.47500  0.75000  Biso   1.000  Al
  Al7435   1.0000 0.92500  0.42500  0.80000  Biso   1.000  Al
  Al7436   1.0000 0.92500  0.47500  0.82500  Biso   1.000  Al
  Al7437   1.0000 0.97500  0.42500  0.82500  Biso   1.000  Al
  Al7438   1.0000 0.97500  0.47500  0.80000  Biso   1.000  Al
  Al7439   1.0000 0.92500  0.42500  0.85000  Biso   1.000  Al
  Al7440   1.0000 0.92500  0.47500  0.87500  Biso   1.000  Al
  Al7441   1.0000 0.97500  0.42500  0.87500  Biso   1.000  Al
  Al7442   1.0000 0.97500  0.47500  0.85000  Biso   1.000  Al
  Al7443   1.0000 0.92500  0.42500  0.90000  Biso   1.000  Al
  Al7444   1.0000 0.92500  0.47500  0.92500  Biso   1.000  Al
  Al7445   1.0000 0.97500  0.42500  0.92500  Biso   1.000  Al
  Al7446   1.0000 0.97500  0.47500  0.90000  Biso   1.000  Al
  Al7447   1.0000 0.92500  0.42500  0.95000  Biso   1.000  Al
  Al7448   1.0000 0.92500  0.47500  0.97500  Biso   1.000  Al
  Al7449   1.0000 0.97500  0.42500  0.97500  Biso   1.000  Al
  Al7450   1.0000 0.97500  0.47500  0.95000  Biso   1.000  Al
  Al7451   1.0000 0.92500  0.52500  0.00000  Biso   1.000  Al
  Al7452   1.0000 0.92500  0.57500  0.02500  Biso   1.000  Al
  Al7453   1.0000 0.97500  0.52500  0.02500  Biso   1.000  Al
  Al7454   1.0000 0.97500  0.57500  0.00000  Biso   1.000  Al
  Al7455   1.0000 0.92500  0.52500  0.05000  Biso   1.000  Al
  Al7456   1.0000 0.92500  0.57500  0.07500  Biso   1.000  Al
  Al7457   1.0000 0.97500  0.52500  0.07500  Biso   1.000  Al
  Al7458   1.0000 0.97500  0.57500  0.05000  Biso   1.000  Al
  Al7459   1.0000 0.92500  0.52500  0.10000  Biso   1.000  Al
  Al7460   1.0000 0.92500  0.57500  0.12500  Biso   1.000  Al
  Al7461   1.0000 0.97500  0.52500  0.12500  Biso   1.000  Al
  Al7462   1.0000 0.97500  0.57500  0.10000  Biso   1.000  Al
  Al7463   1.0000 0.92500  0.52500  0.15000  Biso   1.000  Al
  Al7464   1.0000 0.92500  0.57500  0.17500  Biso   1.000  Al
  Al7465   1.0000 0.97500  0.52500  0.17500  Biso   1.000  Al
  Al7466   1.0000 0.97500  0.57500  0.15000  Biso   1.000  Al
  Al7467   1.0000 0.92500  0.52500  0.20000  Biso   1.000  Al
  Al7468   1.0000 0.92500  0.57500  0.22500  Biso   1.000  Al
  Al7469   1.0000 0.97500  0.52500  0.22500  Biso   1.000  Al
  Al7470   1.0000 0.97500  0.57500  0.20000  Biso   1.000  Al
  Al7471   1.0000 0.92500  0.52500  0.25000  Biso   1.000  Al
  Al7472   1.0000 0.92500  0.57500  0.27500  Biso   1.000  Al
  Al7473   1.0000 0.97500  0.52500  0.27500  Biso   1.000  Al
  Al7474   1.0000 0.97500  0.57500  0.25000  Biso   1.000  Al
  Al7475   1.0000 0.92500  0.52500  0.30000  Biso   1.000  Al
  Al7476   1.0000 0.92500  0.57500  0.32500  Biso   1.000  Al
  Al7477   1.0000 0.97500  0.52500  0.32500  Biso   1.000  Al
  Al7478   1.0000 0.97500  0.57500  0.30000  Biso   1.000  Al
  Al7479   1.0000 0.92500  0.52500  0.35000  Biso   1.000  Al
  Al7480   1.0000 0.92500  0.57500  0.37500  Biso   1.000  Al
  Al7481   1.0000 0.97500  0.52500  0.37500  Biso   1.000  Al
  Al7482   1.0000 0.97500  0.57500  0.35000  Biso   1.000  Al
  Al7483   1.0000 0.92500  0.52500  0.40000  Biso   1.000  Al
  Al7484   1.0000 0.92500  0.57500  0.42500  Biso   1.000  Al
  Al7485   1.0000 0.97500  0.52500  0.42500  Biso   1.000  Al
  Al7486   1.0000 0.97500  0.57500  0.40000  Biso   1.000  Al
  Al7487   1.0000 0.92500  0.52500  0.45000  Biso   1.000  Al
  Al7488   1.0000 0.92500  0.57500  0.47500  Biso   1.000  Al
  Al7489   1.0000 0.97500  0.52500  0.47500  Biso   1.000  Al
  Al7490   1.0000 0.97500  0.57500  0.45000  Biso   1.000  Al
  Al7491   1.0000 0.92500  0.52500  0.50000  Biso   1.000  Al
  Al7492   1.0000 0.92500  0.57500  0.52500  Biso   1.000  Al
  Al7493   1.0000 0.97500  0.52500  0.52500  Biso   1.000  Al
  Al7494   1.0000 0.97500  0.57500  0.50000  Biso   1.000  Al
  Al7495   1.0000 0.92500  0.52500  0.55000  Biso   1.000  Al
  Al7496   1.0000 0.92500  0.57500  0.57500  Biso   1.000  Al
  Al7497   1.0000 0.97500  0.52500  0.57500  Biso   1.000  Al
  Al7498   1.0000 0.97500  0.57500  0.55000  Biso   1.000  Al
  Al7499   1.0000 0.92500  0.52500  0.60000  Biso   1.000  Al
  Al7500   1.0000 0.92500  0.57500  0.62500  Biso   1.000  Al
  Al7501   1.0000 0.97500  0.52500  0.62500  Biso   1.000  Al
  Al7502   1.0000 0.97500  0.57500  0.60000  Biso   1.000  Al
  Al7503   1.0000 0.92500  0.52500  0.65000  Biso   1.000  Al
  Al7504   1.0000 0.92500  0.57500  0.67500  Biso   1.000  Al
  Al7505   1.0000 0.97500  0.52500  0.67500  Biso   1.000  Al
  Al7506   1.0000 0.97500  0.57500  0.65000  Biso   1.000  Al
  Al7507   1.0000 0.92500  0.52500  0.70000  Biso   1.000  Al
  Al7508   1.0000 0.92500  0.57500  0.72500  Biso   1.000  Al
  Al7509   1.0000 0.97500  0.52500  0.72500  Biso   1.000  Al
  Al7510   1.0000 0.97500  0.57500  0.70000  Biso   1.000  Al
  Al7511   1.0000 0.92500  0.52500  0.75000  Biso   1.000  Al
  Al7512   1.0000 0.92500  0.57500  0.77500  Biso   1.000  Al
  Al7513   1.0000 0.97500  0.52500  0.77500  Biso   1.000  Al
  Al7514   1.0000 0.97500  0.57500  0.75000  Biso   1.000  Al
  Al7515   1.0000 0.92500  0.52500  0.80000  Biso   1.000  Al
  Al7516   1.0000 0.92500  0.57500  0.82500  Biso   1.000  Al
  Al7517   1.0000 0.97500  0.52500  0.82500  Biso   1.000  Al
  Al7518   1.0000 0.97500  0.57500  0.80000  Biso   1.000  Al
  Al7519   1.0000 0.92500  0.52500  0.85000  Biso   1.000  Al
  Al7520   1.0000 0.92500  0.57500  0.87500  Biso   1.000  Al
  Al7521   1.0000 0.97500  0.52500  0.87500  Biso   1.000  Al
  Al7522   1.0000 0.97500  0.57500  0.85000  Biso   1.000  Al
  Al7523   1.0000 0.92500  0.52500  0.90000  Biso   1.000  Al
  Al7524   1.0000 0.92500  0.57500  0.92500  Biso   1.000  Al
  Al7525   1.0000 0.97500  0.52500  0.92500  Biso   1.000  Al
  Al7526   1.0000 0.97500  0.57500  0.90000  Biso   1.000  Al
  Al7527   1.0000 0.92500  0.52500  0.95000  Biso   1.000  Al
  Al7528   1.0000 0.92500  0.57500  0.97500  Biso   1.000  Al
  Al7529   1.0000 0.97500  0.52500  0.97500  Biso   1.000  Al
  Al7530   1.0000 0.97500  0.57500  0.95000  Biso   1.000  Al
  Al7531   1.0000 0.92500  0.62500  0.00000  Biso   1.000  Al
  Al7532   1.0000 0.92500  0.67500  0.02500  Biso   1.000  Al
  Al7533   1.0000 0.97500  0.62500  0.02500  Biso   1.000  Al
  Al7534   1.0000 0.97500  0.67500  0.00000  Biso   1.000  Al
  Al7535   1.0000 0.92500  0.62500  0.05000  Biso   1.000  Al
  Al7536   1.0000 0.92500  0.67500  0.07500  Biso   1.000  Al
  Al7537   1.0000 0.97500  0.62500  0.07500  Biso   1.000  Al
  Al7538   1.0000 0.97500  0.67500  0.05000  Biso   1.000  Al
  Al7539   1.0000 0.92500  0.62500  0.10000  Biso   1.000  Al
  Al7540   1.0000 0.92500  0.67500  0.12500  Biso   1.000  Al
  Al7541   1.0000 0.97500  0.62500  0.12500  Biso   1.000  Al
  Al7542   1.0000 0.97500  0.67500  0.10000  Biso   1.000  Al
  Al7543   1.0000 0.92500  0.62500  0.15000  Biso   1.000  Al
  Al7544   1.0000 0.92500  0.67500  0.17500  Biso   1.000  Al
  Al7545   1.0000 0.97500  0.62500  0.17500  Biso   1.000  Al
  Al7546   1.0000 0.97500  0.67500  0.15000  Biso   1.000  Al
  Al7547   1.0000 0.92500  0.62500  0.20000  Biso   1.000  Al
  Al7548   1.0000 0.92500  0.67500  0.22500  Biso   1.000  Al
  Al7549   1.0000 0.97500  0.62500  0.22500  Biso   1.000  Al
  Al7550   1.0000 0.97500  0.67500  0.20000  Biso   1.000  Al
  Al7551   1.0000 0.92500  0.62500  0.25000  Biso   1.000  Al
  Al7552   1.0000 0.92500  0.67500  0.27500  Biso   1.000  Al
  Al7553   1.0000 0.97500  0.62500  0.27500  Biso   1.000  Al
  Al7554   1.0000 0.97500  0.67500  0.25000  Biso   1.000  Al
  Al7555   1.0000 0.92500  0.62500  0.30000  Biso   1.000  Al
  Al7556   1.0000 0.92500  0.67500  0.32500  Biso   1.000  Al
  Al7557   1.0000 0.97500  0.62500  0.32500  Biso   1.000  Al
  Al7558   1.0000 0.97500  0.67500  0.30000  Biso   1.000  Al
  Al7559   1.0000 0.92500  0.62500  0.35000  Biso   1.000  Al
  Al7560   1.0000 0.92500  0.67500  0.37500  Biso   1.000  Al
  Al7561   1.0000 0.97500  0.62500  0.37500  Biso   1.000  Al
  Al7562   1.0000 0.97500  0.67500  0.35000  Biso   1.000  Al
  Al7563   1.0000 0.92500  0.62500  0.40000  Biso   1.000  Al
  Al7564   1.0000 0.92500  0.67500  0.42500  Biso   1.000  Al
  Al7565   1.0000 0.97500  0.62500  0.42500  Biso   1.000  Al
  Al7566   1.0000 0.97500  0.67500  0.40000  Biso   1.000  Al
  Al7567   1.0000 0.92500  0.62500  0.45000  Biso   1.000  Al
  Al7568   1.0000 0.92500  0.67500  0.47500  Biso   1.000  Al
  Al7569   1.0000 0.97500  0.62500  0.47500  Biso   1.000  Al
  Al7570   1.0000 0.97500  0.67500  0.45000  Biso   1.000  Al
  Al7571   1.0000 0.92500  0.62500  0.50000  Biso   1.000  Al
  Al7572   1.0000 0.92500  0.67500  0.52500  Biso   1.000  Al
  Al7573   1.0000 0.97500  0.62500  0.52500  Biso   1.000  Al
  Al7574   1.0000 0.97500  0.67500  0.50000  Biso   1.000  Al
  Al7575   1.0000 0.92500  0.62500  0.55000  Biso   1.000  Al
  Al7576   1.0000 0.92500  0.67500  0.57500  Biso   1.000  Al
  Al7577   1.0000 0.97500  0.62500  0.57500  Biso   1.000  Al
  Al7578   1.0000 0.97500  0.67500  0.55000  Biso   1.000  Al
  Al7579   1.0000 0.92500  0.62500  0.60000  Biso   1.000  Al
  Al7580   1.0000 0.92500  0.67500  0.62500  Biso   1.000  Al
  Al7581   1.0000 0.97500  0.62500  0.62500  Biso   1.000  Al
  Al7582   1.0000 0.97500  0.67500  0.60000  Biso   1.000  Al
  Al7583   1.0000 0.92500  0.62500  0.65000  Biso   1.000  Al
  Al7584   1.0000 0.92500  0.67500  0.67500  Biso   1.000  Al
  Al7585   1.0000 0.97500  0.62500  0.67500  Biso   1.000  Al
  Al7586   1.0000 0.97500  0.67500  0.65000  Biso   1.000  Al
  Al7587   1.0000 0.92500  0.62500  0.70000  Biso   1.000  Al
  Al7588   1.0000 0.92500  0.67500  0.72500  Biso   1.000  Al
  Al7589   1.0000 0.97500  0.62500  0.72500  Biso   1.000  Al
  Al7590   1.0000 0.97500  0.67500  0.70000  Biso   1.000  Al
  Al7591   1.0000 0.92500  0.62500  0.75000  Biso   1.000  Al
  Al7592   1.0000 0.92500  0.67500  0.77500  Biso   1.000  Al
  Al7593   1.0000 0.97500  0.62500  0.77500  Biso   1.000  Al
  Al7594   1.0000 0.97500  0.67500  0.75000  Biso   1.000  Al
  Al7595   1.0000 0.92500  0.62500  0.80000  Biso   1.000  Al
  Al7596   1.0000 0.92500  0.67500  0.82500  Biso   1.000  Al
  Al7597   1.0000 0.97500  0.62500  0.82500  Biso   1.000  Al
  Al7598   1.0000 0.97500  0.67500  0.80000  Biso   1.000  Al
  Al7599   1.0000 0.92500  0.62500  0.85000  Biso   1.000  Al
  Al7600   1.0000 0.92500  0.67500  0.87500  Biso   1.000  Al
  Al7601   1.0000 0.97500  0.62500  0.87500  Biso   1.000  Al
  Al7602   1.0000 0.97500  0.67500  0.85000  Biso   1.000  Al
  Al7603   1.0000 0.92500  0.62500  0.90000  Biso   1.000  Al
  Al7604   1.0000 0.92500  0.67500  0.92500  Biso   1.000  Al
  Al7605   1.0000 0.97500  0.62500  0.92500  Biso   1.000  Al
  Al7606   1.0000 0.97500  0.67500  0.90000  Biso   1.000  Al
  Al7607   1.0000 0.92500  0.62500  0.95000  Biso   1.000  Al
  Al7608   1.0000 0.92500  0.67500  0.97500  Biso   1.000  Al
  Al7609   1.0000 0.97500  0.62500  0.97500  Biso   1.000  Al
  Al7610   1.0000 0.97500  0.67500  0.95000  Biso   1.000  Al
  Al7611   1.0000 0.92500  0.72500  0.00000  Biso   1.000  Al
  Al7612   1.0000 0.92500  0.77500  0.02500  Biso   1.000  Al
  Al7613   1.0000 0.97500  0.72500  0.02500  Biso   1.000  Al
  Al7614   1.0000 0.97500  0.77500  0.00000  Biso   1.000  Al
  Al7615   1.0000 0.92500  0.72500  0.05000  Biso   1.000  Al
  Al7616   1.0000 0.92500  0.77500  0.07500  Biso   1.000  Al
  Al7617   1.0000 0.97500  0.72500  0.07500  Biso   1.000  Al
  Al7618   1.0000 0.97500  0.77500  0.05000  Biso   1.000  Al
  Al7619   1.0000 0.92500  0.72500  0.10000  Biso   1.000  Al
  Al7620   1.0000 0.92500  0.77500  0.12500  Biso   1.000  Al
  Al7621   1.0000 0.97500  0.72500  0.12500  Biso   1.000  Al
  Al7622   1.0000 0.97500  0.77500  0.10000  Biso   1.000  Al
  Al7623   1.0000 0.92500  0.72500  0.15000  Biso   1.000  Al
  Al7624   1.0000 0.92500  0.77500  0.17500  Biso   1.000  Al
  Al7625   1.0000 0.97500  0.72500  0.17500  Biso   1.000  Al
  Al7626   1.0000 0.97500  0.77500  0.15000  Biso   1.000  Al
  Al7627   1.0000 0.92500  0.72500  0.20000  Biso   1.000  Al
  Al7628   1.0000 0.92500  0.77500  0.22500  Biso   1.000  Al
  Al7629   1.0000 0.97500  0.72500  0.22500  Biso   1.000  Al
  Al7630   1.0000 0.97500  0.77500  0.20000  Biso   1.000  Al
  Al7631   1.0000 0.92500  0.72500  0.25000  Biso   1.000  Al
  Al7632   1.0000 0.92500  0.77500  0.27500  Biso   1.000  Al
  Al7633   1.0000 0.97500  0.72500  0.27500  Biso   1.000  Al
  Al7634   1.0000 0.97500  0.77500  0.25000  Biso   1.000  Al
  Al7635   1.0000 0.92500  0.72500  0.30000  Biso   1.000  Al
  Al7636   1.0000 0.92500  0.77500  0.32500  Biso   1.000  Al
  Al7637   1.0000 0.97500  0.72500  0.32500  Biso   1.000  Al
  Al7638   1.0000 0.97500  0.77500  0.30000  Biso   1.000  Al
  Al7639   1.0000 0.92500  0.72500  0.35000  Biso   1.000  Al
  Al7640   1.0000 0.92500  0.77500  0.37500  Biso   1.000  Al
  Al7641   1.0000 0.97500  0.72500  0.37500  Biso   1.000  Al
  Al7642   1.0000 0.97500  0.77500  0.35000  Biso   1.000  Al
  Al7643   1.0000 0.92500  0.72500  0.40000  Biso   1.000  Al
  Al7644   1.0000 0.92500  0.77500  0.42500  Biso   1.000  Al
  Al7645   1.0000 0.97500  0.72500  0.42500  Biso   1.000  Al
  Al7646   1.0000 0.97500  0.77500  0.40000  Biso   1.000  Al
  Al7647   1.0000 0.92500  0.72500  0.45000  Biso   1.000  Al
  Al7648   1.0000 0.92500  0.77500  0.47500  Biso   1.000  Al
  Al7649   1.0000 0.97500  0.72500  0.47500  Biso   1.000  Al
  Al7650   1.0000 0.97500  0.77500  0.45000  Biso   1.000  Al
  Al7651   1.0000 0.92500  0.72500  0.50000  Biso   1.000  Al
  Al7652   1.0000 0.92500  0.77500  0.52500  Biso   1.000  Al
  Al7653   1.0000 0.97500  0.72500  0.52500  Biso   1.000  Al
  Al7654   1.0000 0.97500  0.77500  0.50000  Biso   1.000  Al
  Al7655   1.0000 0.92500  0.72500  0.55000  Biso   1.000  Al
  Al7656   1.0000 0.92500  0.77500  0.57500  Biso   1.000  Al
  Al7657   1.0000 0.97500  0.72500  0.57500  Biso   1.000  Al
  Al7658   1.0000 0.97500  0.77500  0.55000  Biso   1.000  Al
  Al7659   1.0000 0.92500  0.72500  0.60000  Biso   1.000  Al
  Al7660   1.0000 0.92500  0.77500  0.62500  Biso   1.000  Al
  Al7661   1.0000 0.97500  0.72500  0.62500  Biso   1.000  Al
  Al7662   1.0000 0.97500  0.77500  0.60000  Biso   1.000  Al
  Al7663   1.0000 0.92500  0.72500  0.65000  Biso   1.000  Al
  Al7664   1.0000 0.92500  0.77500  0.67500  Biso   1.000  Al
  Al7665   1.0000 0.97500  0.72500  0.67500  Biso   1.000  Al
  Al7666   1.0000 0.97500  0.77500  0.65000  Biso   1.000  Al
  Al7667   1.0000 0.92500  0.72500  0.70000  Biso   1.000  Al
  Al7668   1.0000 0.92500  0.77500  0.72500  Biso   1.000  Al
  Al7669   1.0000 0.97500  0.72500  0.72500  Biso   1.000  Al
  Al7670   1.0000 0.97500  0.77500  0.70000  Biso   1.000  Al
  Al7671   1.0000 0.92500  0.72500  0.75000  Biso   1.000  Al
  Al7672   1.0000 0.92500  0.77500  0.77500  Biso   1.000  Al
  Al7673   1.0000 0.97500  0.72500  0.77500  Biso   1.000  Al
  Al7674   1.0000 0.97500  0.77500  0.75000  Biso   1.000  Al
  Al7675   1.0000 0.92500  0.72500  0.80000  Biso   1.000  Al
  Al7676   1.0000 0.92500  0.77500  0.82500  Biso   1.000  Al
  Al7677   1.0000 0.97500  0.72500  0.82500  Biso   1.000  Al
  Al7678   1.0000 0.97500  0.77500  0.80000  Biso   1.000  Al
  Al7679   1.0000 0.92500  0.72500  0.85000  Biso   1.000  Al
  Al7680   1.0000 0.92500  0.77500  0.87500  Biso   1.000  Al
  Al7681   1.0000 0.97500  0.72500  0.87500  Biso   1.000  Al
  Al7682   1.0000 0.97500  0.77500  0.85000  Biso   1.000  Al
  Al7683   1.0000 0.92500  0.72500  0.90000  Biso   1.000  Al
  Al7684   1.0000 0.92500  0.77500  0.92500  Biso   1.000  Al
  Al7685   1.0000 0.97500  0.72500  0.92500  Biso   1.000  Al
  Al7686   1.0000 0.97500  0.77500  0.90000  Biso   1.000  Al
  Al7687   1.0000 0.92500  0.72500  0.95000  Biso   1.000  Al
  Al7688   1.0000 0.92500  0.77500  0.97500  Biso   1.000  Al
  Al7689   1.0000 0.97500  0.72500  0.97500  Biso   1.000  Al
  Al7690   1.0000 0.97500  0.77500  0.95000  Biso   1.000  Al
  Al7691   1.0000 0.92500  0.82500  0.00000  Biso   1.000  Al
  Al7692   1.0000 0.92500  0.87500  0.02500  Biso   1.000  Al
  Al7693   1.0000 0.97500  0.82500  0.02500  Biso   1.000  Al
  Al7694   1.0000 0.97500  0.87500  0.00000  Biso   1.000  Al
  Al7695   1.0000 0.92500  0.82500  0.05000  Biso   1.000  Al
  Al7696   1.0000 0.92500  0.87500  0.07500  Biso   1.000  Al
  Al7697   1.0000 0.97500  0.82500  0.07500  Biso   1.000  Al
  Al7698   1.0000 0.97500  0.87500  0.05000  Biso   1.000  Al
  Al7699   1.0000 0.92500  0.82500  0.10000  Biso   1.000  Al
  Al7700   1.0000 0.92500  0.87500  0.12500  Biso   1.000  Al
  Al7701   1.0000 0.97500  0.82500  0.12500  Biso   1.000  Al
  Al7702   1.0000 0.97500  0.87500  0.10000  Biso   1.000  Al
  Al7703   1.0000 0.92500  0.82500  0.15000  Biso   1.000  Al
  Al7704   1.0000 0.92500  0.87500  0.17500  Biso   1.000  Al
  Al7705   1.0000 0.97500  0.82500  0.17500  Biso   1.000  Al
  Al7706   1.0000 0.97500  0.87500  0.15000  Biso   1.000  Al
  Al7707   1.0000 0.92500  0.82500  0.20000  Biso   1.000  Al
  Al7708   1.0000 0.92500  0.87500  0.22500  Biso   1.000  Al
  Al7709   1.0000 0.97500  0.82500  0.22500  Biso   1.000  Al
  Al7710   1.0000 0.97500  0.87500  0.20000  Biso   1.000  Al
  Al7711   1.0000 0.92500  0.82500  0.25000  Biso   1.000  Al
  Al7712   1.0000 0.92500  0.87500  0.27500  Biso   1.000  Al
  Al7713   1.0000 0.97500  0.82500  0.27500  Biso   1.000  Al
  Al7714   1.0000 0.97500  0.87500  0.25000  Biso   1.000  Al
  Al7715   1.0000 0.92500  0.82500  0.30000  Biso   1.000  Al
  Al7716   1.0000 0.92500  0.87500  0.32500  Biso   1.000  Al
  Al7717   1.0000 0.97500  0.82500  0.32500  Biso   1.000  Al
  Al7718   1.0000 0.97500  0.87500  0.30000  Biso   1.000  Al
  Al7719   1.0000 0.92500  0.82500  0.35000  Biso   1.000  Al
  Al7720   1.0000 0.92500  0.87500  0.37500  Biso   1.000  Al
  Al7721   1.0000 0.97500  0.82500  0.37500  Biso   1.000  Al
  Al7722   1.0000 0.97500  0.87500  0.35000  Biso   1.000  Al
  Al7723   1.0000 0.92500  0.82500  0.40000  Biso   1.000  Al
  Al7724   1.0000 0.92500  0.87500  0.42500  Biso   1.000  Al
  Al7725   1.0000 0.97500  0.82500  0.42500  Biso   1.000  Al
  Al7726   1.0000 0.97500  0.87500  0.40000  Biso   1.000  Al
  Al7727   1.0000 0.92500  0.82500  0.45000  Biso   1.000  Al
  Al7728   1.0000 0.92500  0.87500  0.47500  Biso   1.000  Al
  Al7729   1.0000 0.97500  0.82500  0.47500  Biso   1.000  Al
  Al7730   1.0000 0.97500  0.87500  0.45000  Biso   1.000  Al
  Al7731   1.0000 0.92500  0.82500  0.50000  Biso   1.000  Al
  Al7732   1.0000 0.92500  0.87500  0.52500  Biso   1.000  Al
  Al7733   1.0000 0.97500  0.82500  0.52500  Biso   1.000  Al
  Al7734   1.0000 0.97500  0.87500  0.50000  Biso   1.000  Al
  Al7735   1.0000 0.92500  0.82500  0.55000  Biso   1.000  Al
  Al7736   1.0000 0.92500  0.87500  0.57500  Biso   1.000  Al
  Al7737   1.0000 0.97500  0.82500  0.57500  Biso   1.000  Al
  Al7738   1.0000 0.97500  0.87500  0.55000  Biso   1.000  Al
  Al7739   1.0000 0.92500  0.82500  0.60000  Biso   1.000  Al
  Al7740   1.0000 0.92500  0.87500  0.62500  Biso   1.000  Al
  Al7741   1.0000 0.97500  0.82500  0.62500  Biso   1.000  Al
  Al7742   1.0000 0.97500  0.87500  0.60000  Biso   1.000  Al
  Al7743   1.0000 0.92500  0.82500  0.65000  Biso   1.000  Al
  Al7744   1.0000 0.92500  0.87500  0.67500  Biso   1.000  Al
  Al7745   1.0000 0.97500  0.82500  0.67500  Biso   1.000  Al
  Al7746   1.0000 0.97500  0.87500  0.65000  Biso   1.000  Al
  Al7747   1.0000 0.92500  0.82500  0.70000  Biso   1.000  Al
  Al7748   1.0000 0.92500  0.87500  0.72500  Biso   1.000  Al
  Al7749   1.0000 0.97500  0.82500  0.72500  Biso   1.000  Al
  Al7750   1.0000 0.97500  0.87500  0.70000  Biso   1.000  Al
  Al7751   1.0000 0.92500  0.82500  0.75000  Biso   1.000  Al
  Al7752   1.0000 0.92500  0.87500  0.77500  Biso   1.000  Al
  Al7753   1.0000 0.97500  0.82500  0.77500  Biso   1.000  Al
  Al7754   1.0000 0.97500  0.87500  0.75000  Biso   1.000  Al
  Al7755   1.0000 0.92500  0.82500  0.80000  Biso   1.000  Al
  Al7756   1.0000 0.92500  0.87500  0.82500  Biso   1.000  Al
  Al7757   1.0000 0.97500  0.82500  0.82500  Biso   1.000  Al
  Al7758   1.0000 0.97500  0.87500  0.80000  Biso   1.000  Al
  Al7759   1.0000 0.92500  0.82500  0.85000  Biso   1.000  Al
  Al7760   1.0000 0.92500  0.87500  0.87500  Biso   1.000  Al
  Al7761   1.0000 0.97500  0.82500  0.87500  Biso   1.000  Al
  Al7762   1.0000 0.97500  0.87500  0.85000  Biso   1.000  Al
  Al7763   1.0000 0.92500  0.82500  0.90000  Biso   1.000  Al
  Al7764   1.0000 0.92500  0.87500  0.92500  Biso   1.000  Al
  Al7765   1.0000 0.97500  0.82500  0.92500  Biso   1.000  Al
  Al7766   1.0000 0.97500  0.87500  0.90000  Biso   1.000  Al
  Al7767   1.0000 0.92500  0.82500  0.95000  Biso   1.000  Al
  Al7768   1.0000 0.92500  0.87500  0.97500  Biso   1.000  Al
  Al7769   1.0000 0.97500  0.82500  0.97500  Biso   1.000  Al
  Al7770   1.0000 0.97500  0.87500  0.95000  Biso   1.000  Al
  Al7771   1.0000 0.92500  0.92500  0.00000  Biso   1.000  Al
  Al7772   1.0000 0.92500  0.97500  0.02500  Biso   1.000  Al
  Al7773   1.0000 0.97500  0.92500  0.02500  Biso   1.000  Al
  Al7774   1.0000 0.97500  0.97500  0.00000  Biso   1.000  Al
  Al7775   1.0000 0.92500  0.92500  0.05000  Biso   1.000  Al
  Al7776   1.0000 0.92500  0.97500  0.07500  Biso   1.000  Al
  Al7777   1.0000 0.97500  0.92500  0.07500  Biso   1.000  Al
  Al7778   1.0000 0.97500  0.97500  0.05000  Biso   1.000  Al
  Al7779   1.0000 0.92500  0.92500  0.10000  Biso   1.000  Al
  Al7780   1.0000 0.92500  0.97500  0.12500  Biso   1.000  Al
  Al7781   1.0000 0.97500  0.92500  0.12500  Biso   1.000  Al
  Al7782   1.0000 0.97500  0.97500  0.10000  Biso   1.000  Al
  Al7783   1.0000 0.92500  0.92500  0.15000  Biso   1.000  Al
  Al7784   1.0000 0.92500  0.97500  0.17500  Biso   1.000  Al
  Al7785   1.0000 0.97500  0.92500  0.17500  Biso   1.000  Al
  Al7786   1.0000 0.97500  0.97500  0.15000  Biso   1.000  Al
  Al7787   1.0000 0.92500  0.92500  0.20000  Biso   1.000  Al
  Al7788   1.0000 0.92500  0.97500  0.22500  Biso   1.000  Al
  Al7789   1.0000 0.97500  0.92500  0.22500  Biso   1.000  Al
  Al7790   1.0000 0.97500  0.97500  0.20000  Biso   1.000  Al
  Al7791   1.0000 0.92500  0.92500  0.25000  Biso   1.000  Al
  Al7792   1.0000 0.92500  0.97500  0.27500  Biso   1.000  Al
  Al7793   1.0000 0.97500  0.92500  0.27500  Biso   1.000  Al
  Al7794   1.0000 0.97500  0.97500  0.25000  Biso   1.000  Al
  Al7795   1.0000 0.92500  0.92500  0.30000  Biso   1.000  Al
  Al7796   1.0000 0.92500  0.97500  0.32500  Biso   1.000  Al
  Al7797   1.0000 0.97500  0.92500  0.32500  Biso   1.000  Al
  Al7798   1.0000 0.97500  0.97500  0.30000  Biso   1.000  Al
  Al7799   1.0000 0.92500  0.92500  0.35000  Biso   1.000  Al
  Al7800   1.0000 0.92500  0.97500  0.37500  Biso   1.000  Al
  Al7801   1.0000 0.97500  0.92500  0.37500  Biso   1.000  Al
  Al7802   1.0000 0.97500  0.97500  0.35000  Biso   1.000  Al
  Al7803   1.0000 0.92500  0.92500  0.40000  Biso   1.000  Al
  Al7804   1.0000 0.92500  0.97500  0.42500  Biso   1.000  Al
  Al7805   1.0000 0.97500  0.92500  0.42500  Biso   1.000  Al
  Al7806   1.0000 0.97500  0.97500  0.40000  Biso   1.000  Al
  Al7807   1.0000 0.92500  0.92500  0.45000  Biso   1.000  Al
  Al7808   1.0000 0.92500  0.97500  0.47500  Biso   1.000  Al
  Al7809   1.0000 0.97500  0.92500  0.47500  Biso   1.000  Al
  Al7810   1.0000 0.97500  0.97500  0.45000  Biso   1.000  Al
  Al7811   1.0000 0.92500  0.92500  0.50000  Biso   1.000  Al
  Al7812   1.0000 0.92500  0.97500  0.52500  Biso   1.000  Al
  Al7813   1.0000 0.97500  0.92500  0.52500  Biso   1.000  Al
  Au151    1.0000 0.97500  0.97500  0.50000  Biso   1.000  Au
  Al7814   1.0000 0.92500  0.92500  0.55000  Biso   1.000  Al
  Al7815   1.0000 0.92500  0.97500  0.57500  Biso   1.000  Al
  Al7816   1.0000 0.97500  0.92500  0.57500  Biso   1.000  Al
  Au152    1.0000 0.97500  0.97500  0.55000  Biso   1.000  Au
  Al7817   1.0000 0.92500  0.92500  0.60000  Biso   1.000  Al
  Al7818   1.0000 0.92500  0.97500  0.62500  Biso   1.000  Al
  Al7819   1.0000 0.97500  0.92500  0.62500  Biso   1.000  Al
  Au153    1.0000 0.97500  0.97500  0.60000  Biso   1.000  Au
  Al7820   1.0000 0.92500  0.92500  0.65000  Biso   1.000  Al
  Al7821   1.0000 0.92500  0.97500  0.67500  Biso   1.000  Al
  Al7822   1.0000 0.97500  0.92500  0.67500  Biso   1.000  Al
  Au154    1.0000 0.97500  0.97500  0.65000  Biso   1.000  Au
  Al7823   1.0000 0.92500  0.92500  0.70000  Biso   1.000  Al
  Al7824   1.0000 0.92500  0.97500  0.72500  Biso   1.000  Al
  Al7825   1.0000 0.97500  0.92500  0.72500  Biso   1.000  Al
  Au155    1.0000 0.97500  0.97500  0.70000  Biso   1.000  Au
  Al7826   1.0000 0.92500  0.92500  0.75000  Biso   1.000  Al
  Al7827   1.0000 0.92500  0.97500  0.77500  Biso   1.000  Al
  Al7828   1.0000 0.97500  0.92500  0.77500  Biso   1.000  Al
  Au156    1.0000 0.97500  0.97500  0.75000  Biso   1.000  Au
  Al7829   1.0000 0.92500  0.92500  0.80000  Biso   1.000  Al
  Al7830   1.0000 0.92500  0.97500  0.82500  Biso   1.000  Al
  Al7831   1.0000 0.97500  0.92500  0.82500  Biso   1.000  Al
  Au157    1.0000 0.97500  0.97500  0.80000  Biso   1.000  Au
  Al7832   1.0000 0.92500  0.92500  0.85000  Biso   1.000  Al
  Al7833   1.0000 0.92500  0.97500  0.87500  Biso   1.000  Al
  Al7834   1.0000 0.97500  0.92500  0.87500  Biso   1.000  Al
  Au158    1.0000 0.97500  0.97500  0.85000  Biso   1.000  Au
  Al7835   1.0000 0.92500  0.92500  0.90000  Biso   1.000  Al
  Al7836   1.0000 0.92500  0.97500  0.92500  Biso   1.000  Al
  Al7837   1.0000 0.97500  0.92500  0.92500  Biso   1.000  Al
  Au159    1.0000 0.97500  0.97500  0.90000  Biso   1.000  Au
  Al7838   1.0000 0.92500  0.92500  0.95000  Biso   1.000  Al
  Al7839   1.0000 0.92500  0.97500  0.97500  Biso   1.000  Al
  Al7840   1.0000 0.97500  0.92500  0.97500  Biso   1.000  Al
  Au160    1.0000 0.97500  0.97500  0.95000  Biso   1.000  Au
